Compound 1
Actelion Java MolfileCreator 2.0

  0  0  0  0  0  0              0 V3000
M  V30 BEGIN CTAB
M  V30 COUNTS 32 36 0 0 0
M  V30 BEGIN ATOM
M  V30 1 F 0.0 0.0 0.0 0
M  V30 2 C -0.9426 1.187 0.0 0
M  V30 3 C -0.4073 2.5836 0.0 0
M  V30 4 C -2.4323 0.9775 0.0 0
M  V30 5 C 1.059 2.8164 0.0 0
M  V30 6 C -1.35 3.7707 0.0 0
M  V30 7 C -3.375 2.1646 0.0 0
M  V30 8 O 1.9784 1.6526 0.0 0
M  V30 9 N 1.5944 4.2129 0.0 0
M  V30 10 C -2.8396 3.5612 0.0 0
M  V30 11 C 3.0608 4.4457 0.0 0
M  V30 12 C 0.6517 5.4 0.0 0
M  V30 13 C -3.7823 4.7483 0.0 0
M  V30 14 C 3.5961 5.8422 0.0 0
M  V30 15 C 1.187 6.7966 0.0 0
M  V30 16 C -3.247 6.1448 0.0 0
M  V30 17 N 2.6534 7.0293 0.0 0
M  V30 18 N -1.7806 6.3776 0.0 0
M  V30 19 C -4.1896 7.3319 0.0 0
M  V30 20 C 3.1888 8.4259 0.0 0
M  V30 21 N -1.2452 7.7742 0.0 0
M  V30 22 C -3.6543 8.7285 0.0 0
M  V30 23 C -5.6793 7.1224 0.0 0
M  V30 24 O 2.2461 9.613 0.0 0
M  V30 25 C 4.6552 8.6586 0.0 0
M  V30 26 C -2.1879 8.9612 0.0 0
M  V30 27 C -4.597 9.9156 0.0 0
M  V30 28 C -6.622 8.3095 0.0 0
M  V30 29 C 5.819 9.6013 0.0 0
M  V30 30 C 6.0285 8.1233 0.0 0
M  V30 31 O -1.6526 10.3578 0.0 0
M  V30 32 C -6.0866 9.7061 0.0 0
M  V30 END ATOM
M  V30 BEGIN BOND
M  V30 1 1 1 2
M  V30 2 2 2 3
M  V30 3 1 2 4
M  V30 4 1 3 5
M  V30 5 1 3 6
M  V30 6 2 4 7
M  V30 7 2 5 8
M  V30 8 1 5 9
M  V30 9 2 6 10
M  V30 10 1 9 11
M  V30 11 1 9 12
M  V30 12 1 10 13
M  V30 13 1 11 14
M  V30 14 1 12 15
M  V30 15 1 13 16
M  V30 16 1 14 17
M  V30 17 2 16 18
M  V30 18 1 16 19
M  V30 19 1 17 20
M  V30 20 1 18 21
M  V30 21 2 19 22
M  V30 22 1 19 23
M  V30 23 2 20 24
M  V30 24 1 20 25
M  V30 25 1 21 26
M  V30 26 1 22 27
M  V30 27 2 23 28
M  V30 28 1 25 29
M  V30 29 1 25 30
M  V30 30 2 26 31
M  V30 31 2 27 32
M  V30 32 1 7 10
M  V30 33 1 15 17
M  V30 34 1 22 26
M  V30 35 1 28 32
M  V30 36 1 29 30
M  V30 END BOND
M  V30 END CTAB
M  END
>  <Structure No>
1

>  <cLogP>
3.1669

>  <cLogS>
-4.454

>  <H-Acceptors>
7

>  <Polar Surface Area>
82.08

>  <Druglikeness>
8.3247

>  <Total Molweight>
434.470

>  <Molweight>
434.470

>  <Monoisotopic Mass>
434.175419

>  <cLogP 2>
3.1669

>  <cLogS 2>
-4.454

>  <H-Acceptors 2>
7

>  <H-Donors>
1

>  <Total Surface Area>
315.97

>  <Relative PSA>
0.21898

>  <Polar Surface Area 2>
82.08

>  <Druglikeness 2>
8.3247

$$$$
Compound 2
Actelion Java MolfileCreator 2.0

  0  0  0  0  0  0              0 V3000
M  V30 BEGIN CTAB
M  V30 COUNTS 24 27 0 0 0
M  V30 BEGIN ATOM
M  V30 1 F 0.0 0.0 0.0 0
M  V30 2 C -1.1866 -0.9164 0.0 0
M  V30 3 C -0.9869 -2.3851 0.0 0
M  V30 4 C -2.5848 -0.3524 0.0 0
M  V30 5 C -2.1736 -3.3015 0.0 0
M  V30 6 C -3.7715 -1.2689 0.0 0
M  V30 7 C -1.7506 -4.7232 0.0 0
M  V30 8 C -3.5717 -2.7375 0.0 0
M  V30 9 N -5.2636 -1.0456 0.0 0
M  V30 10 O -0.2819 -4.9464 0.0 0
M  V30 11 N -2.6083 -5.9451 0.0 0
M  V30 12 C -4.8877 -3.466 0.0 0
M  V30 13 C -5.9333 -2.3733 0.0 0
M  V30 14 C -4.1122 -6.0391 0.0 0
M  V30 15 C -5.1344 -4.9346 0.0 0
M  V30 16 C -7.4137 -2.62 0.0 0
M  V30 17 C -8.3889 -1.4569 0.0 0
M  V30 18 C -7.9425 -4.0182 0.0 0
M  V30 19 C -9.8693 -1.7036 0.0 0
M  V30 20 C -9.4229 -4.2649 0.0 0
M  V30 21 C -10.3981 -3.1018 0.0 0
M  V30 22 C -11.8785 -3.3485 0.0 0
M  V30 23 N -12.8537 -2.1853 0.0 0
M  V30 24 C -14.3341 -2.4321 0.0 0
M  V30 END ATOM
M  V30 BEGIN BOND
M  V30 1 1 1 2
M  V30 2 2 2 3
M  V30 3 1 2 4
M  V30 4 1 3 5
M  V30 5 2 4 6
M  V30 6 1 5 7
M  V30 7 2 5 8
M  V30 8 1 6 9
M  V30 9 2 7 10
M  V30 10 1 7 11
M  V30 11 1 8 12
M  V30 12 1 9 13
M  V30 13 1 11 14
M  V30 14 1 12 15
M  V30 15 1 13 16
M  V30 16 2 16 17
M  V30 17 1 16 18
M  V30 18 1 17 19
M  V30 19 2 18 20
M  V30 20 2 19 21
M  V30 21 1 21 22
M  V30 22 1 22 23
M  V30 23 1 23 24
M  V30 24 1 6 8
M  V30 25 2 12 13
M  V30 26 1 14 15
M  V30 27 1 20 21
M  V30 END BOND
M  V30 END CTAB
M  END
>  <Structure No>
2

>  <cLogP>
2.5426

>  <cLogS>
-4.463

>  <H-Acceptors>
4

>  <Polar Surface Area>
56.92

>  <Druglikeness>
1.6734

>  <Total Molweight>
323.370

>  <Molweight>
323.370

>  <Monoisotopic Mass>
323.143390

>  <cLogP 2>
2.5426

>  <cLogS 2>
-4.463

>  <H-Acceptors 2>
4

>  <H-Donors>
3

>  <Total Surface Area>
244.25

>  <Relative PSA>
0.2045

>  <Polar Surface Area 2>
56.92

>  <Druglikeness 2>
1.6734

$$$$
Compound 3
Actelion Java MolfileCreator 2.0

  0  0  0  0  0  0              0 V3000
M  V30 BEGIN CTAB
M  V30 COUNTS 24 27 0 0 0
M  V30 BEGIN ATOM
M  V30 1 O 0.0 0.0 0.0 0
M  V30 2 C 1.1948 -0.8785 0.0 0
M  V30 3 N 2.5536 -0.2694 0.0 0
M  V30 4 C 1.0191 -2.3545 0.0 0
M  V30 5 C -0.3631 -2.9402 0.0 0
M  V30 6 C 2.2139 -3.2331 0.0 0
M  V30 7 N -1.7336 -2.3076 0.0 0
M  V30 8 C -0.5388 -4.4162 0.0 0
M  V30 9 C 2.0382 -4.7091 0.0 0
M  V30 10 N -2.7528 -3.3971 0.0 0
M  V30 11 C 0.6559 -5.2948 0.0 0
M  V30 12 C -2.0148 -4.7091 0.0 0
M  V30 13 C -4.2522 -3.2214 0.0 0
M  V30 14 C -4.8613 -1.8391 0.0 0
M  V30 15 C -5.1542 -4.4162 0.0 0
M  V30 16 C -6.3608 -1.6634 0.0 0
M  V30 17 C -6.6536 -4.2405 0.0 0
M  V30 18 C -7.2627 -2.8582 0.0 0
M  V30 19 C -8.7622 -2.6825 0.0 0 CFG=2
M  V30 20 C -9.6642 -3.8773 0.0 0
M  V30 21 C -9.3713 -1.3002 0.0 0
M  V30 22 N -11.1636 -3.7016 0.0 0
M  V30 23 C -10.8707 -1.1245 0.0 0
M  V30 24 C -11.7727 -2.3194 0.0 0
M  V30 END ATOM
M  V30 BEGIN BOND
M  V30 1 2 1 2
M  V30 2 1 2 3
M  V30 3 1 2 4
M  V30 4 1 4 5
M  V30 5 2 4 6
M  V30 6 2 5 7
M  V30 7 1 5 8
M  V30 8 1 6 9
M  V30 9 1 7 10
M  V30 10 1 8 11
M  V30 11 2 8 12
M  V30 12 1 10 13
M  V30 13 2 13 14
M  V30 14 1 13 15
M  V30 15 1 14 16
M  V30 16 2 15 17
M  V30 17 2 16 18
M  V30 18 1 19 18 CFG=3
M  V30 19 1 19 20
M  V30 20 1 19 21
M  V30 21 1 20 22
M  V30 22 1 21 23
M  V30 23 1 22 24
M  V30 24 2 9 11
M  V30 25 1 10 12
M  V30 26 1 17 18
M  V30 27 1 23 24
M  V30 END BOND
M  V30 BEGIN COLLECTION
M  V30 MDLV30/STERAC1 ATOMS=(1 19)
M  V30 END COLLECTION
M  V30 END CTAB
M  END
>  <Structure No>
3

>  <cLogP>
2.0619

>  <cLogS>
-3.683

>  <H-Acceptors>
5

>  <Polar Surface Area>
72.94

>  <Druglikeness>
4.2674

>  <Total Molweight>
320.395

>  <Molweight>
320.395

>  <Monoisotopic Mass>
320.163711

>  <cLogP 2>
2.0619

>  <cLogS 2>
-3.683

>  <H-Acceptors 2>
5

>  <H-Donors>
2

>  <Total Surface Area>
247.35

>  <Relative PSA>
0.23291

>  <Polar Surface Area 2>
72.94

>  <Druglikeness 2>
4.2674

$$$$
Compound 4
Actelion Java MolfileCreator 2.0

  0  0  0  0  0  0              0 V3000
M  V30 BEGIN CTAB
M  V30 COUNTS 28 32 0 0 0
M  V30 BEGIN ATOM
M  V30 1 F 0.0 0.0 0.0 0
M  V30 2 C -0.9879 -1.129 0.0 0
M  V30 3 C -2.4697 -0.8467 0.0 0
M  V30 4 C -0.4939 -2.5285 0.0 0
M  V30 5 C -3.4576 -1.9758 0.0 0
M  V30 6 C -1.4818 -3.6576 0.0 0
M  V30 7 N -4.9395 -1.6935 0.0 0
M  V30 8 C -2.9637 -3.3753 0.0 0
M  V30 9 C -0.9879 -5.0571 0.0 0
M  V30 10 C -5.9274 -2.8225 0.0 0 CFG=2
M  V30 11 C -3.9516 -4.5043 0.0 0
M  V30 12 O 0.4704 -5.3158 0.0 0
M  V30 13 N -1.9758 -6.1861 0.0 0
M  V30 14 C -7.4093 -2.5403 0.0 0
M  V30 15 C -5.4335 -4.2221 0.0 0 CFG=2
M  V30 16 N -3.4576 -5.9039 0.0 0
M  V30 17 C -7.9268 -1.1172 0.0 0
M  V30 18 C -8.3972 -3.6693 0.0 0
M  V30 19 C -6.4214 -5.3511 0.0 0
M  V30 20 C -9.4086 -0.835 0.0 0
M  V30 21 C -9.879 -3.3871 0.0 0
M  V30 22 N -7.9268 -5.2218 0.0 0
M  V30 23 N -6.0803 -6.7977 0.0 0
M  V30 24 C -10.3965 -1.964 0.0 0
M  V30 25 C -8.5148 -6.5978 0.0 0
M  V30 26 N -7.374 -7.5739 0.0 0
M  V30 27 C -4.7043 -7.3622 0.0 0
M  V30 28 F -11.8784 -1.6817 0.0 0
M  V30 END ATOM
M  V30 BEGIN BOND
M  V30 1 1 1 2
M  V30 2 2 2 3
M  V30 3 1 2 4
M  V30 4 1 3 5
M  V30 5 2 4 6
M  V30 6 1 5 7
M  V30 7 2 5 8
M  V30 8 1 6 9
M  V30 9 1 7 10
M  V30 10 1 8 11
M  V30 11 2 9 12
M  V30 12 1 9 13
M  V30 13 1 10 14 CFG=1
M  V30 14 1 10 15
M  V30 15 2 11 16
M  V30 16 2 14 17
M  V30 17 1 14 18
M  V30 18 1 15 19 CFG=3
M  V30 19 1 17 20
M  V30 20 2 18 21
M  V30 21 2 19 22
M  V30 22 1 19 23
M  V30 23 2 20 24
M  V30 24 1 22 25
M  V30 25 1 23 26
M  V30 26 1 23 27
M  V30 27 1 24 28
M  V30 28 1 6 8
M  V30 29 1 11 15
M  V30 30 1 13 16
M  V30 31 1 21 24
M  V30 32 2 25 26
M  V30 END BOND
M  V30 BEGIN COLLECTION
M  V30 MDLV30/STERAC1 ATOMS=(2 10 15)
M  V30 END COLLECTION
M  V30 END CTAB
M  END
>  <Structure No>
4

>  <cLogP>
2.0485

>  <cLogS>
-4.554

>  <H-Acceptors>
7

>  <Polar Surface Area>
84.2

>  <Druglikeness>
4.366

>  <Total Molweight>
380.357

>  <Molweight>
380.357

>  <Monoisotopic Mass>
380.119715

>  <cLogP 2>
2.0485

>  <cLogS 2>
-4.554

>  <H-Acceptors 2>
7

>  <H-Donors>
2

>  <Total Surface Area>
266.1

>  <Relative PSA>
0.28666

>  <Polar Surface Area 2>
84.2

>  <Druglikeness 2>
4.366

$$$$
