
     RDKit          2D

 35 39  0  0  0  0  0  0  0  0999 V2000
   -7.9167   -1.8704    0.0000 O   0  0  0  0  0  0  0  0  0  0  0  0
   -6.8664   -0.7995    0.0000 C   0  0  0  0  0  0  0  0  0  0  0  0
   -7.2687    0.6456    0.0000 C   0  0  0  0  0  0  0  0  0  0  0  0
   -6.2184    1.7165    0.0000 C   0  0  0  0  0  0  0  0  0  0  0  0
   -6.6207    3.1615    0.0000 C   0  0  0  0  0  0  0  0  0  0  0  0
   -8.0733    3.5356    0.0000 C   0  0  0  0  0  0  0  0  0  0  0  0
   -9.1236    2.4647    0.0000 N   0  0  0  0  0  0  0  0  0  0  0  0
   -8.7213    1.0197    0.0000 C   0  0  0  0  0  0  0  0  0  0  0  0
   -5.4138   -1.1736    0.0000 N   0  0  0  0  0  0  0  0  0  0  0  0
   -5.0115   -2.6186    0.0000 C   0  0  0  0  0  0  0  0  0  0  0  0
   -3.5589   -2.9927    0.0000 C   0  0  0  0  0  0  0  0  0  0  0  0
   -2.5086   -1.9218    0.0000 N   0  0  0  0  0  0  0  0  0  0  0  0
   -1.0560   -2.2959    0.0000 C   0  0  0  0  0  0  0  0  0  0  0  0
   -0.6537   -3.7410    0.0000 O   0  0  0  0  0  0  0  0  0  0  0  0
   -0.0057   -1.2250    0.0000 C   0  0  0  0  0  0  0  0  0  0  0  0
    1.4469   -1.5991    0.0000 C   0  0  0  0  0  0  0  0  0  0  0  0
    2.4972   -0.5282    0.0000 C   0  0  0  0  0  0  0  0  0  0  0  0
    3.9498   -0.9023    0.0000 C   0  0  0  0  0  0  0  0  0  0  0  0
    5.0001    0.1687    0.0000 C   0  0  0  0  0  0  0  0  0  0  0  0
    4.5978    1.6137    0.0000 N   0  0  0  0  0  0  0  0  0  0  0  0
    5.6480    2.6846    0.0000 N   0  0  0  0  0  0  0  0  0  0  0  0
    7.1006    2.3105    0.0000 C   0  0  0  0  0  0  0  0  0  0  0  0
    8.1509    3.3815    0.0000 O   0  0  0  0  0  0  0  0  0  0  0  0
    7.5030    0.8655    0.0000 C   0  0  0  0  0  0  0  0  0  0  0  0
    6.4527   -0.2054    0.0000 C   0  0  0  0  0  0  0  0  0  0  0  0
    6.8550   -1.6505    0.0000 C   0  0  0  0  0  0  0  0  0  0  0  0
    8.3076   -2.0246    0.0000 C   0  0  0  0  0  0  0  0  0  0  0  0
    9.3579   -0.9537    0.0000 C   0  0  0  0  0  0  0  0  0  0  0  0
    8.9556    0.4914    0.0000 C   0  0  0  0  0  0  0  0  0  0  0  0
    2.0949    0.9169    0.0000 C   0  0  0  0  0  0  0  0  0  0  0  0
    0.6423    1.2910    0.0000 C   0  0  0  0  0  0  0  0  0  0  0  0
   -0.4080    0.2201    0.0000 C   0  0  0  0  0  0  0  0  0  0  0  0
   -1.8606    0.5942    0.0000 F   0  0  0  0  0  0  0  0  0  0  0  0
   -2.9109   -0.4768    0.0000 C   0  0  0  0  0  0  0  0  0  0  0  0
   -4.3635   -0.1027    0.0000 C   0  0  0  0  0  0  0  0  0  0  0  0
  1  2  2  0
  2  3  1  0
  3  4  2  0
  4  5  1  0
  5  6  2  0
  6  7  1  0
  7  8  2  0
  2  9  1  0
  9 10  1  0
 10 11  1  0
 11 12  1  0
 12 13  1  0
 13 14  2  0
 13 15  1  0
 15 16  2  0
 16 17  1  0
 17 18  1  0
 18 19  1  0
 19 20  2  0
 20 21  1  0
 21 22  1  0
 22 23  2  0
 22 24  1  0
 24 25  2  0
 25 26  1  0
 26 27  1  0
 27 28  1  0
 28 29  1  0
 17 30  2  0
 30 31  1  0
 31 32  2  0
 32 33  1  0
 12 34  1  0
 34 35  1  0
  8  3  1  0
 35  9  1  0
 32 15  1  0
 25 19  1  0
 29 24  1  0
M  END
$$$$

     RDKit          2D

 27 30  0  0  0  0  0  0  0  0999 V2000
   -3.4884   -2.7690    0.0000 O   0  0  0  0  0  0  0  0  0  0  0  0
   -3.6120   -1.2741    0.0000 C   0  0  0  0  0  0  0  0  0  0  0  0
   -2.3791   -0.4196    0.0000 C   0  0  0  0  0  0  0  0  0  0  0  0
   -1.0227   -1.0601    0.0000 C   0  0  0  0  0  0  0  0  0  0  0  0
    0.2101   -0.2056    0.0000 C   0  0  0  0  0  0  0  0  0  0  0  0
    1.5665   -0.8460    0.0000 C   0  0  0  0  0  0  0  0  0  0  0  0
    2.7993    0.0084    0.0000 C   0  0  0  0  0  0  0  0  0  0  0  0
    2.6758    1.5033    0.0000 N   0  0  0  0  0  0  0  0  0  0  0  0
    3.9086    2.3578    0.0000 N   0  0  0  0  0  0  0  0  0  0  0  0
    5.2650    1.7174    0.0000 C   0  0  0  0  0  0  0  0  0  0  0  0
    6.4979    2.5718    0.0000 O   0  0  0  0  0  0  0  0  0  0  0  0
    5.3886    0.2225    0.0000 C   0  0  0  0  0  0  0  0  0  0  0  0
    4.1558   -0.6320    0.0000 C   0  0  0  0  0  0  0  0  0  0  0  0
    4.2793   -2.1269    0.0000 N   0  0  0  0  0  0  0  0  0  0  0  0
    5.6357   -2.7673    0.0000 C   0  0  0  0  0  0  0  0  0  0  0  0
    6.8686   -1.9129    0.0000 C   0  0  0  0  0  0  0  0  0  0  0  0
    6.7450   -0.4180    0.0000 C   0  0  0  0  0  0  0  0  0  0  0  0
    0.0865    1.2893    0.0000 C   0  0  0  0  0  0  0  0  0  0  0  0
   -1.2699    1.9297    0.0000 C   0  0  0  0  0  0  0  0  0  0  0  0
   -2.5027    1.0753    0.0000 C   0  0  0  0  0  0  0  0  0  0  0  0
   -3.8591    1.7157    0.0000 F   0  0  0  0  0  0  0  0  0  0  0  0
   -4.9684   -0.6337    0.0000 N   0  0  0  0  0  0  0  0  0  0  0  0
   -5.0920    0.8612    0.0000 C   0  0  0  0  0  0  0  0  0  0  0  0
   -6.4484    1.5017    0.0000 C   0  0  0  0  0  0  0  0  0  0  0  0
   -7.6812    0.6472    0.0000 N   0  0  0  0  0  0  0  0  0  0  0  0
   -7.5576   -0.8477    0.0000 C   0  0  0  0  0  0  0  0  0  0  0  0
   -6.2012   -1.4882    0.0000 C   0  0  0  0  0  0  0  0  0  0  0  0
  1  2  2  0
  2  3  1  0
  3  4  2  0
  4  5  1  0
  5  6  1  0
  6  7  1  0
  7  8  2  0
  8  9  1  0
  9 10  1  0
 10 11  2  0
 10 12  1  0
 12 13  2  0
 13 14  1  0
 14 15  1  0
 15 16  1  0
 16 17  1  0
  5 18  2  0
 18 19  1  0
 19 20  2  0
 20 21  1  0
  2 22  1  0
 22 23  1  0
 23 24  1  0
 24 25  1  0
 25 26  1  0
 26 27  1  0
 20  3  1  0
 27 22  1  0
 13  7  1  0
 17 12  1  0
M  END
$$$$

     RDKit          2D

 20 22  0  0  0  0  0  0  0  0999 V2000
    3.8169   -2.9821    0.0000 O   0  0  0  0  0  0  0  0  0  0  0  0
    2.7694   -1.9085    0.0000 C   0  0  0  0  0  0  0  0  0  0  0  0
    1.3159   -2.2788    0.0000 N   0  0  0  0  0  0  0  0  0  0  0  0
    0.2683   -1.2051    0.0000 N   0  0  0  0  0  0  0  0  0  0  0  0
    0.6744    0.2389    0.0000 C   0  0  0  0  0  0  0  0  0  0  0  0
   -0.3731    1.3125    0.0000 C   0  0  0  0  0  0  0  0  0  0  0  0
   -1.8267    0.9422    0.0000 C   0  0  0  0  0  0  0  0  0  0  0  0
   -2.8742    2.0158    0.0000 C   0  0  0  0  0  0  0  0  0  0  0  0
   -4.3277    1.6455    0.0000 C   0  0  0  0  0  0  0  0  0  0  0  0
   -4.7338    0.2015    0.0000 C   0  0  0  0  0  0  0  0  0  0  0  0
   -6.1874   -0.1689    0.0000 F   0  0  0  0  0  0  0  0  0  0  0  0
   -3.6863   -0.8722    0.0000 C   0  0  0  0  0  0  0  0  0  0  0  0
   -4.0923   -2.3162    0.0000 F   0  0  0  0  0  0  0  0  0  0  0  0
   -2.2327   -0.5018    0.0000 C   0  0  0  0  0  0  0  0  0  0  0  0
    2.1280    0.6092    0.0000 C   0  0  0  0  0  0  0  0  0  0  0  0
    3.1755   -0.4645    0.0000 C   0  0  0  0  0  0  0  0  0  0  0  0
    4.6290   -0.0941    0.0000 C   0  0  0  0  0  0  0  0  0  0  0  0
    5.0351    1.3499    0.0000 C   0  0  0  0  0  0  0  0  0  0  0  0
    3.9876    2.4235    0.0000 C   0  0  0  0  0  0  0  0  0  0  0  0
    2.5340    2.0532    0.0000 C   0  0  0  0  0  0  0  0  0  0  0  0
  1  2  2  0
  2  3  1  0
  3  4  1  0
  4  5  2  0
  5  6  1  0
  6  7  1  0
  7  8  2  0
  8  9  1  0
  9 10  2  0
 10 11  1  0
 10 12  1  0
 12 13  1  0
 12 14  2  0
  5 15  1  0
 15 16  2  0
 16 17  1  0
 17 18  1  0
 18 19  1  0
 19 20  1  0
 16  2  1  0
 14  7  1  0
 20 15  1  0
M  END
$$$$

     RDKit          2D

 20 22  0  0  0  0  0  0  0  0999 V2000
   -6.2541   -1.6276    0.0000 C   0  0  0  0  0  0  0  0  0  0  0  0
   -4.9981   -0.8076    0.0000 C   0  0  0  0  0  0  0  0  0  0  0  0
   -3.7143   -1.5834    0.0000 C   0  0  0  0  0  0  0  0  0  0  0  0
   -2.3073   -1.0635    0.0000 O   0  0  0  0  0  0  0  0  0  0  0  0
   -1.8366    0.3607    0.0000 C   0  0  0  0  0  0  0  0  0  0  0  0
   -0.3492    0.5546    0.0000 C   0  0  0  0  0  0  0  0  0  0  0  0
    0.6819   -0.5348    0.0000 N   0  0  0  0  0  0  0  0  0  0  0  0
    2.0367    0.1091    0.0000 C   0  0  0  0  0  0  0  0  0  0  0  0
    3.4217   -0.4667    0.0000 C   0  0  0  0  0  0  0  0  0  0  0  0
    3.6155   -1.9541    0.0000 C   0  0  0  0  0  0  0  0  0  0  0  0
    5.0006   -2.5300    0.0000 N   0  0  0  0  0  0  0  0  0  0  0  0
    2.4243   -2.8657    0.0000 O   0  0  0  0  0  0  0  0  0  0  0  0
    4.6129    0.4449    0.0000 C   0  0  0  0  0  0  0  0  0  0  0  0
    4.4191    1.9323    0.0000 C   0  0  0  0  0  0  0  0  0  0  0  0
    3.0341    2.5081    0.0000 C   0  0  0  0  0  0  0  0  0  0  0  0
    1.8428    1.5966    0.0000 C   0  0  0  0  0  0  0  0  0  0  0  0
    0.3683    1.8719    0.0000 N   0  0  0  0  0  0  0  0  0  0  0  0
   -2.6566    1.6168    0.0000 C   0  0  0  0  0  0  0  0  0  0  0  0
   -4.1499    1.7588    0.0000 C   0  0  0  0  0  0  0  0  0  0  0  0
   -5.1919    0.6798    0.0000 N   0  0  0  0  0  0  0  0  0  0  0  0
  1  2  1  0
  2  3  2  0
  3  4  1  0
  4  5  1  0
  5  6  1  0
  6  7  2  0
  7  8  1  0
  8  9  2  0
  9 10  1  0
 10 11  1  0
 10 12  2  0
  9 13  1  0
 13 14  2  0
 14 15  1  0
 15 16  2  0
 16 17  1  0
  5 18  2  0
 18 19  1  0
 19 20  2  0
 20  2  1  0
 17  6  1  0
 16  8  1  0
M  END
$$$$

     RDKit          2D

 20 22  0  0  0  0  0  0  0  0999 V2000
   -7.1335    0.3859    0.0000 C   0  0  0  0  0  0  0  0  0  0  0  0
   -6.1463   -0.7435    0.0000 O   0  0  0  0  0  0  0  0  0  0  0  0
   -4.6746   -0.4532    0.0000 C   0  0  0  0  0  0  0  0  0  0  0  0
   -4.1902    0.9665    0.0000 C   0  0  0  0  0  0  0  0  0  0  0  0
   -2.7186    1.2567    0.0000 C   0  0  0  0  0  0  0  0  0  0  0  0
   -1.7313    0.1274    0.0000 C   0  0  0  0  0  0  0  0  0  0  0  0
   -0.2597    0.4177    0.0000 C   0  0  0  0  0  0  0  0  0  0  0  0
    0.8402   -0.6023    0.0000 N   0  0  0  0  0  0  0  0  0  0  0  0
    2.1501    0.1286    0.0000 C   0  0  0  0  0  0  0  0  0  0  0  0
    3.5697   -0.3559    0.0000 C   0  0  0  0  0  0  0  0  0  0  0  0
    3.8600   -1.8275    0.0000 C   0  0  0  0  0  0  0  0  0  0  0  0
    5.2796   -2.3119    0.0000 N   0  0  0  0  0  0  0  0  0  0  0  0
    2.7306   -2.8147    0.0000 O   0  0  0  0  0  0  0  0  0  0  0  0
    4.6990    0.6314    0.0000 C   0  0  0  0  0  0  0  0  0  0  0  0
    4.4088    2.1030    0.0000 C   0  0  0  0  0  0  0  0  0  0  0  0
    2.9891    2.5874    0.0000 C   0  0  0  0  0  0  0  0  0  0  0  0
    1.8598    1.6002    0.0000 C   0  0  0  0  0  0  0  0  0  0  0  0
    0.3705    1.7789    0.0000 N   0  0  0  0  0  0  0  0  0  0  0  0
   -2.2158   -1.2922    0.0000 C   0  0  0  0  0  0  0  0  0  0  0  0
   -3.6874   -1.5825    0.0000 C   0  0  0  0  0  0  0  0  0  0  0  0
  1  2  1  0
  2  3  1  0
  3  4  2  0
  4  5  1  0
  5  6  2  0
  6  7  1  0
  7  8  2  0
  8  9  1  0
  9 10  2  0
 10 11  1  0
 11 12  1  0
 11 13  2  0
 10 14  1  0
 14 15  2  0
 15 16  1  0
 16 17  2  0
 17 18  1  0
  6 19  1  0
 19 20  2  0
 20  3  1  0
 18  7  1  0
 17  9  1  0
M  END
$$$$

     RDKit          2D

 20 22  0  0  0  0  0  0  0  0999 V2000
    5.3608   -1.9414    0.0000 O   0  0  0  0  0  0  0  0  0  0  0  0
    3.9391   -1.4629    0.0000 C   0  0  0  0  0  0  0  0  0  0  0  0
    2.8139   -2.4548    0.0000 N   0  0  0  0  0  0  0  0  0  0  0  0
    1.3923   -1.9763    0.0000 N   0  0  0  0  0  0  0  0  0  0  0  0
    1.0959   -0.5059    0.0000 C   0  0  0  0  0  0  0  0  0  0  0  0
   -0.3258   -0.0274    0.0000 C   0  0  0  0  0  0  0  0  0  0  0  0
   -1.4510   -1.0193    0.0000 O   0  0  0  0  0  0  0  0  0  0  0  0
   -2.8726   -0.5409    0.0000 C   0  0  0  0  0  0  0  0  0  0  0  0
   -3.1690    0.9296    0.0000 C   0  0  0  0  0  0  0  0  0  0  0  0
   -4.5907    1.4080    0.0000 C   0  0  0  0  0  0  0  0  0  0  0  0
   -5.7159    0.4161    0.0000 C   0  0  0  0  0  0  0  0  0  0  0  0
   -7.1375    0.8946    0.0000 F   0  0  0  0  0  0  0  0  0  0  0  0
   -5.4194   -1.0543    0.0000 C   0  0  0  0  0  0  0  0  0  0  0  0
   -3.9978   -1.5328    0.0000 C   0  0  0  0  0  0  0  0  0  0  0  0
    2.2211    0.4860    0.0000 C   0  0  0  0  0  0  0  0  0  0  0  0
    3.6427    0.0075    0.0000 C   0  0  0  0  0  0  0  0  0  0  0  0
    4.7679    0.9995    0.0000 C   0  0  0  0  0  0  0  0  0  0  0  0
    4.4715    2.4699    0.0000 C   0  0  0  0  0  0  0  0  0  0  0  0
    3.0498    2.9484    0.0000 C   0  0  0  0  0  0  0  0  0  0  0  0
    1.9246    1.9564    0.0000 C   0  0  0  0  0  0  0  0  0  0  0  0
  1  2  2  0
  2  3  1  0
  3  4  1  0
  4  5  2  0
  5  6  1  0
  6  7  1  0
  7  8  1  0
  8  9  2  0
  9 10  1  0
 10 11  2  0
 11 12  1  0
 11 13  1  0
 13 14  2  0
  5 15  1  0
 15 16  2  0
 16 17  1  0
 17 18  1  0
 18 19  1  0
 19 20  1  0
 16  2  1  0
 14  8  1  0
 20 15  1  0
M  END
$$$$

     RDKit          2D

 21 23  0  0  0  0  0  0  0  0999 V2000
   -7.6101   -0.3490    0.0000 C   0  0  0  0  0  0  0  0  0  0  0  0
   -6.3288   -1.1288    0.0000 O   0  0  0  0  0  0  0  0  0  0  0  0
   -5.0128   -0.4091    0.0000 C   0  0  0  0  0  0  0  0  0  0  0  0
   -4.9781    1.0905    0.0000 C   0  0  0  0  0  0  0  0  0  0  0  0
   -3.6621    1.8103    0.0000 C   0  0  0  0  0  0  0  0  0  0  0  0
   -2.3807    1.0305    0.0000 C   0  0  0  0  0  0  0  0  0  0  0  0
   -2.4154   -0.4691    0.0000 C   0  0  0  0  0  0  0  0  0  0  0  0
   -1.1340   -1.2489    0.0000 N   0  0  0  0  0  0  0  0  0  0  0  0
    0.1820   -0.5292    0.0000 C   0  0  0  0  0  0  0  0  0  0  0  0
    1.5379   -1.1708    0.0000 N   0  0  0  0  0  0  0  0  0  0  0  0
    2.5670   -0.0796    0.0000 C   0  0  0  0  0  0  0  0  0  0  0  0
    4.0666   -0.1142    0.0000 C   0  0  0  0  0  0  0  0  0  0  0  0
    4.7864   -1.4303    0.0000 C   0  0  0  0  0  0  0  0  0  0  0  0
    6.2860   -1.4649    0.0000 N   0  0  0  0  0  0  0  0  0  0  0  0
    4.0066   -2.7116    0.0000 O   0  0  0  0  0  0  0  0  0  0  0  0
    4.8465    1.1671    0.0000 C   0  0  0  0  0  0  0  0  0  0  0  0
    4.1267    2.4831    0.0000 C   0  0  0  0  0  0  0  0  0  0  0  0
    2.6271    2.5178    0.0000 C   0  0  0  0  0  0  0  0  0  0  0  0
    1.8473    1.2365    0.0000 C   0  0  0  0  0  0  0  0  0  0  0  0
    0.3732    0.9586    0.0000 N   0  0  0  0  0  0  0  0  0  0  0  0
   -3.7314   -1.1889    0.0000 C   0  0  0  0  0  0  0  0  0  0  0  0
  1  2  1  0
  2  3  1  0
  3  4  2  0
  4  5  1  0
  5  6  2  0
  6  7  1  0
  7  8  1  0
  8  9  1  0
  9 10  2  0
 10 11  1  0
 11 12  2  0
 12 13  1  0
 13 14  1  0
 13 15  2  0
 12 16  1  0
 16 17  2  0
 17 18  1  0
 18 19  2  0
 19 20  1  0
  7 21  2  0
 21  3  1  0
 20  9  1  0
 19 11  1  0
M  END
$$$$

     RDKit          2D

 34 38  0  0  0  0  0  0  0  0999 V2000
   -0.8285   -3.8090    0.0000 O   0  0  0  0  0  0  0  0  0  0  0  0
   -1.2528   -2.3703    0.0000 C   0  0  0  0  0  0  0  0  0  0  0  0
   -0.2190   -1.2835    0.0000 C   0  0  0  0  0  0  0  0  0  0  0  0
    1.2391   -1.6354    0.0000 C   0  0  0  0  0  0  0  0  0  0  0  0
    2.2730   -0.5486    0.0000 C   0  0  0  0  0  0  0  0  0  0  0  0
    3.7311   -0.9005    0.0000 C   0  0  0  0  0  0  0  0  0  0  0  0
    4.7649    0.1863    0.0000 C   0  0  0  0  0  0  0  0  0  0  0  0
    4.3406    1.6251    0.0000 N   0  0  0  0  0  0  0  0  0  0  0  0
    5.3745    2.7119    0.0000 N   0  0  0  0  0  0  0  0  0  0  0  0
    6.8326    2.3600    0.0000 C   0  0  0  0  0  0  0  0  0  0  0  0
    7.8664    3.4468    0.0000 O   0  0  0  0  0  0  0  0  0  0  0  0
    7.2569    0.9213    0.0000 C   0  0  0  0  0  0  0  0  0  0  0  0
    6.2231   -0.1656    0.0000 C   0  0  0  0  0  0  0  0  0  0  0  0
    6.6474   -1.6043    0.0000 N   0  0  0  0  0  0  0  0  0  0  0  0
    8.1055   -1.9562    0.0000 C   0  0  0  0  0  0  0  0  0  0  0  0
    9.1393   -0.8694    0.0000 C   0  0  0  0  0  0  0  0  0  0  0  0
    8.7150    0.5693    0.0000 C   0  0  0  0  0  0  0  0  0  0  0  0
    1.8487    0.8902    0.0000 C   0  0  0  0  0  0  0  0  0  0  0  0
    0.3905    1.2421    0.0000 C   0  0  0  0  0  0  0  0  0  0  0  0
   -0.6433    0.1553    0.0000 C   0  0  0  0  0  0  0  0  0  0  0  0
   -2.1014    0.5072    0.0000 F   0  0  0  0  0  0  0  0  0  0  0  0
   -2.7110   -2.0184    0.0000 N   0  0  0  0  0  0  0  0  0  0  0  0
   -3.1353   -0.5797    0.0000 C   0  0  0  0  0  0  0  0  0  0  0  0
   -4.5934   -0.2277    0.0000 C   0  0  0  0  0  0  0  0  0  0  0  0
   -5.6272   -1.3146    0.0000 N   0  0  0  0  0  0  0  0  0  0  0  0
   -7.0854   -0.9627    0.0000 C   0  0  0  0  0  0  0  0  0  0  0  0
   -7.5097    0.4761    0.0000 N   0  0  0  0  0  0  0  0  0  0  0  0
   -6.4758    1.5629    0.0000 C   0  0  0  0  0  0  0  0  0  0  0  0
   -6.9001    3.0016    0.0000 C   0  0  0  0  0  0  0  0  0  0  0  0
   -8.3583    3.3536    0.0000 S   0  0  0  0  0  0  0  0  0  0  0  0
   -9.3921    2.2667    0.0000 C   0  0  0  0  0  0  0  0  0  0  0  0
   -8.9678    0.8280    0.0000 C   0  0  0  0  0  0  0  0  0  0  0  0
   -5.2029   -2.7533    0.0000 C   0  0  0  0  0  0  0  0  0  0  0  0
   -3.7448   -3.1052    0.0000 C   0  0  0  0  0  0  0  0  0  0  0  0
  1  2  2  0
  2  3  1  0
  3  4  2  0
  4  5  1  0
  5  6  1  0
  6  7  1  0
  7  8  2  0
  8  9  1  0
  9 10  1  0
 10 11  2  0
 10 12  1  0
 12 13  2  0
 13 14  1  0
 14 15  1  0
 15 16  1  0
 16 17  1  0
  5 18  2  0
 18 19  1  0
 19 20  2  0
 20 21  1  0
  2 22  1  0
 22 23  1  0
 23 24  1  0
 24 25  1  0
 25 26  1  0
 26 27  1  0
 27 28  1  0
 28 29  2  0
 29 30  1  0
 30 31  1  0
 31 32  2  0
 25 33  1  0
 33 34  1  0
 20  3  1  0
 34 22  1  0
 13  7  1  0
 32 27  1  0
 17 12  1  0
M  END
$$$$

     RDKit          2D

 24 27  0  0  0  0  0  0  0  0999 V2000
    3.8393   -3.4102    0.0000 O   0  0  0  0  0  0  0  0  0  0  0  0
    3.0940   -2.1085    0.0000 C   0  0  0  0  0  0  0  0  0  0  0  0
    1.5941   -2.1030    0.0000 N   0  0  0  0  0  0  0  0  0  0  0  0
    0.8488   -0.8013    0.0000 N   0  0  0  0  0  0  0  0  0  0  0  0
    1.6035    0.4950    0.0000 C   0  0  0  0  0  0  0  0  0  0  0  0
    0.8582    1.7968    0.0000 C   0  0  0  0  0  0  0  0  0  0  0  0
   -0.6418    1.8022    0.0000 C   0  0  0  0  0  0  0  0  0  0  0  0
   -1.3871    3.1040    0.0000 C   0  0  0  0  0  0  0  0  0  0  0  0
   -2.8871    3.1094    0.0000 C   0  0  0  0  0  0  0  0  0  0  0  0
   -3.6418    1.8131    0.0000 C   0  0  0  0  0  0  0  0  0  0  0  0
   -5.1418    1.8185    0.0000 F   0  0  0  0  0  0  0  0  0  0  0  0
   -2.8965    0.5113    0.0000 C   0  0  0  0  0  0  0  0  0  0  0  0
   -3.6512   -0.7850    0.0000 C   0  0  0  0  0  0  0  0  0  0  0  0
   -3.0461   -2.1575    0.0000 N   0  0  0  0  0  0  0  0  0  0  0  0
   -4.1644   -3.1571    0.0000 C   0  0  0  0  0  0  0  0  0  0  0  0
   -5.4607   -2.4024    0.0000 C   0  0  0  0  0  0  0  0  0  0  0  0
   -5.1435   -0.9363    0.0000 O   0  0  0  0  0  0  0  0  0  0  0  0
   -1.3965    0.5059    0.0000 C   0  0  0  0  0  0  0  0  0  0  0  0
    3.1035    0.4896    0.0000 C   0  0  0  0  0  0  0  0  0  0  0  0
    3.8487   -0.8121    0.0000 C   0  0  0  0  0  0  0  0  0  0  0  0
    5.3487   -0.8176    0.0000 C   0  0  0  0  0  0  0  0  0  0  0  0
    6.1034    0.4787    0.0000 C   0  0  0  0  0  0  0  0  0  0  0  0
    5.3582    1.7805    0.0000 C   0  0  0  0  0  0  0  0  0  0  0  0
    3.8582    1.7859    0.0000 C   0  0  0  0  0  0  0  0  0  0  0  0
  1  2  2  0
  2  3  1  0
  3  4  1  0
  4  5  2  0
  5  6  1  0
  6  7  1  0
  7  8  2  0
  8  9  1  0
  9 10  2  0
 10 11  1  0
 10 12  1  0
 12 13  1  0
 13 14  2  0
 14 15  1  0
 15 16  2  0
 16 17  1  0
 12 18  2  0
  5 19  1  0
 19 20  2  0
 20 21  1  0
 21 22  1  0
 22 23  1  0
 23 24  1  0
 20  2  1  0
 18  7  1  0
 24 19  1  0
 17 13  1  0
M  END
$$$$

     RDKit          2D

 30 33  0  0  0  0  0  0  0  0999 V2000
   -8.3301    2.2313    0.0000 O   0  0  0  0  0  0  0  0  0  0  0  0
   -8.1343    0.7441    0.0000 C   0  0  0  0  0  0  0  0  0  0  0  0
   -9.3242   -0.1691    0.0000 Cl  0  0  0  0  0  0  0  0  0  0  0  0
   -6.7484    0.1702    0.0000 N   0  0  0  0  0  0  0  0  0  0  0  0
   -5.5584    1.0834    0.0000 C   0  0  0  0  0  0  0  0  0  0  0  0
   -4.1726    0.5095    0.0000 C   0  0  0  0  0  0  0  0  0  0  0  0
   -3.9767   -0.9777    0.0000 N   0  0  0  0  0  0  0  0  0  0  0  0
   -2.5908   -1.5516    0.0000 C   0  0  0  0  0  0  0  0  0  0  0  0
   -2.3950   -3.0388    0.0000 O   0  0  0  0  0  0  0  0  0  0  0  0
   -1.4009   -0.6384    0.0000 C   0  0  0  0  0  0  0  0  0  0  0  0
   -0.0150   -1.2123    0.0000 C   0  0  0  0  0  0  0  0  0  0  0  0
    1.1750   -0.2991    0.0000 C   0  0  0  0  0  0  0  0  0  0  0  0
    2.5608   -0.8731    0.0000 C   0  0  0  0  0  0  0  0  0  0  0  0
    3.7508    0.0401    0.0000 C   0  0  0  0  0  0  0  0  0  0  0  0
    3.5549    1.5273    0.0000 N   0  0  0  0  0  0  0  0  0  0  0  0
    4.7449    2.4405    0.0000 N   0  0  0  0  0  0  0  0  0  0  0  0
    6.1307    1.8666    0.0000 C   0  0  0  0  0  0  0  0  0  0  0  0
    7.3207    2.7798    0.0000 O   0  0  0  0  0  0  0  0  0  0  0  0
    6.3266    0.3794    0.0000 C   0  0  0  0  0  0  0  0  0  0  0  0
    5.1366   -0.5338    0.0000 C   0  0  0  0  0  0  0  0  0  0  0  0
    5.3325   -2.0209    0.0000 C   0  0  0  0  0  0  0  0  0  0  0  0
    6.7184   -2.5949    0.0000 C   0  0  0  0  0  0  0  0  0  0  0  0
    7.9083   -1.6817    0.0000 C   0  0  0  0  0  0  0  0  0  0  0  0
    7.7125   -0.1945    0.0000 C   0  0  0  0  0  0  0  0  0  0  0  0
    0.9791    1.1880    0.0000 C   0  0  0  0  0  0  0  0  0  0  0  0
   -0.4068    1.7620    0.0000 C   0  0  0  0  0  0  0  0  0  0  0  0
   -1.5968    0.8488    0.0000 C   0  0  0  0  0  0  0  0  0  0  0  0
   -2.9826    1.4227    0.0000 F   0  0  0  0  0  0  0  0  0  0  0  0
   -5.1667   -1.8909    0.0000 C   0  0  0  0  0  0  0  0  0  0  0  0
   -6.5525   -1.3170    0.0000 C   0  0  0  0  0  0  0  0  0  0  0  0
  1  2  2  0
  2  3  1  0
  2  4  1  0
  4  5  1  0
  5  6  1  0
  6  7  1  0
  7  8  1  0
  8  9  2  0
  8 10  1  0
 10 11  2  0
 11 12  1  0
 12 13  1  0
 13 14  1  0
 14 15  2  0
 15 16  1  0
 16 17  1  0
 17 18  2  0
 17 19  1  0
 19 20  2  0
 20 21  1  0
 21 22  1  0
 22 23  1  0
 23 24  1  0
 12 25  2  0
 25 26  1  0
 26 27  2  0
 27 28  1  0
  7 29  1  0
 29 30  1  0
 30  4  1  0
 27 10  1  0
 20 14  1  0
 24 19  1  0
M  END
$$$$

     RDKit          2D

 29 32  0  0  0  0  0  0  0  0999 V2000
   -3.1157   -1.6343    0.0000 O   0  0  0  0  0  0  0  0  0  0  0  0
   -2.9787   -0.1406    0.0000 C   0  0  0  0  0  0  0  0  0  0  0  0
   -4.2038    0.7249    0.0000 N   0  0  0  0  0  0  0  0  0  0  0  0
   -5.5660    0.0967    0.0000 C   0  0  0  0  0  0  0  0  0  0  0  0
   -5.5909   -1.4031    0.0000 C   0  0  0  0  0  0  0  0  0  0  0  0
   -6.7791   -2.3187    0.0000 C   0  0  0  0  0  0  0  0  0  0  0  0
   -8.2357   -1.9606    0.0000 C   0  0  0  0  0  0  0  0  0  0  0  0
   -8.8640   -0.5984    0.0000 O   0  0  0  0  0  0  0  0  0  0  0  0
   -8.1907    0.7420    0.0000 C   0  0  0  0  0  0  0  0  0  0  0  0
   -6.7230    1.0513    0.0000 C   0  0  0  0  0  0  0  0  0  0  0  0
   -1.6166    0.4876    0.0000 C   0  0  0  0  0  0  0  0  0  0  0  0
   -0.3915   -0.3779    0.0000 C   0  0  0  0  0  0  0  0  0  0  0  0
    0.9706    0.2503    0.0000 C   0  0  0  0  0  0  0  0  0  0  0  0
    2.1957   -0.6152    0.0000 C   0  0  0  0  0  0  0  0  0  0  0  0
    3.5578    0.0130    0.0000 C   0  0  0  0  0  0  0  0  0  0  0  0
    3.6948    1.5068    0.0000 N   0  0  0  0  0  0  0  0  0  0  0  0
    5.0569    2.1350    0.0000 N   0  0  0  0  0  0  0  0  0  0  0  0
    6.2820    1.2695    0.0000 C   0  0  0  0  0  0  0  0  0  0  0  0
    7.6441    1.8977    0.0000 O   0  0  0  0  0  0  0  0  0  0  0  0
    6.1450   -0.2243    0.0000 C   0  0  0  0  0  0  0  0  0  0  0  0
    4.7829   -0.8525    0.0000 C   0  0  0  0  0  0  0  0  0  0  0  0
    4.6459   -2.3462    0.0000 N   0  0  0  0  0  0  0  0  0  0  0  0
    5.8710   -3.2117    0.0000 C   0  0  0  0  0  0  0  0  0  0  0  0
    7.2331   -2.5835    0.0000 C   0  0  0  0  0  0  0  0  0  0  0  0
    7.3701   -1.0898    0.0000 C   0  0  0  0  0  0  0  0  0  0  0  0
    1.1076    1.7441    0.0000 C   0  0  0  0  0  0  0  0  0  0  0  0
   -0.1175    2.6096    0.0000 C   0  0  0  0  0  0  0  0  0  0  0  0
   -1.4796    1.9814    0.0000 C   0  0  0  0  0  0  0  0  0  0  0  0
   -2.7047    2.8469    0.0000 F   0  0  0  0  0  0  0  0  0  0  0  0
  1  2  2  0
  2  3  1  0
  3  4  1  0
  4  5  1  0
  5  6  1  0
  6  7  1  0
  7  8  1  0
  8  9  1  0
  9 10  1  0
  2 11  1  0
 11 12  2  0
 12 13  1  0
 13 14  1  0
 14 15  1  0
 15 16  2  0
 16 17  1  0
 17 18  1  0
 18 19  2  0
 18 20  1  0
 20 21  2  0
 21 22  1  0
 22 23  1  0
 23 24  1  0
 24 25  1  0
 13 26  2  0
 26 27  1  0
 27 28  2  0
 28 29  1  0
 10  4  1  0
 28 11  1  0
 21 15  1  0
 25 20  1  0
M  END
$$$$

     RDKit          2D

 37 41  0  0  0  0  0  0  0  0999 V2000
   -8.5283   -1.2656    0.0000 C   0  0  0  0  0  0  0  0  0  0  0  0
   -8.9145    0.1838    0.0000 C   0  0  0  0  0  0  0  0  0  0  0  0
  -10.3629    0.5740    0.0000 C   0  0  0  0  0  0  0  0  0  0  0  0
  -10.7491    2.0235    0.0000 C   0  0  0  0  0  0  0  0  0  0  0  0
   -9.6870    3.0826    0.0000 C   0  0  0  0  0  0  0  0  0  0  0  0
   -8.2386    2.6924    0.0000 C   0  0  0  0  0  0  0  0  0  0  0  0
   -7.8524    1.2430    0.0000 C   0  0  0  0  0  0  0  0  0  0  0  0
   -6.4041    0.8528    0.0000 O   0  0  0  0  0  0  0  0  0  0  0  0
   -6.0178   -0.5967    0.0000 C   0  0  0  0  0  0  0  0  0  0  0  0
   -7.0800   -1.6558    0.0000 O   0  0  0  0  0  0  0  0  0  0  0  0
   -4.5695   -0.9869    0.0000 N   0  0  0  0  0  0  0  0  0  0  0  0
   -4.1833   -2.4363    0.0000 C   0  0  0  0  0  0  0  0  0  0  0  0
   -2.7349   -2.8265    0.0000 C   0  0  0  0  0  0  0  0  0  0  0  0
   -1.6728   -1.7673    0.0000 N   0  0  0  0  0  0  0  0  0  0  0  0
   -0.2244   -2.1576    0.0000 C   0  0  0  0  0  0  0  0  0  0  0  0
    0.1618   -3.6070    0.0000 O   0  0  0  0  0  0  0  0  0  0  0  0
    0.8377   -1.0984    0.0000 C   0  0  0  0  0  0  0  0  0  0  0  0
    2.2860   -1.4886    0.0000 C   0  0  0  0  0  0  0  0  0  0  0  0
    3.3482   -0.4294    0.0000 C   0  0  0  0  0  0  0  0  0  0  0  0
    4.7965   -0.8196    0.0000 C   0  0  0  0  0  0  0  0  0  0  0  0
    5.8586    0.2396    0.0000 C   0  0  0  0  0  0  0  0  0  0  0  0
    5.4724    1.6890    0.0000 N   0  0  0  0  0  0  0  0  0  0  0  0
    6.5345    2.7482    0.0000 N   0  0  0  0  0  0  0  0  0  0  0  0
    7.9829    2.3580    0.0000 C   0  0  0  0  0  0  0  0  0  0  0  0
    9.0450    3.4172    0.0000 O   0  0  0  0  0  0  0  0  0  0  0  0
    8.3691    0.9085    0.0000 C   0  0  0  0  0  0  0  0  0  0  0  0
    7.3070   -0.1507    0.0000 C   0  0  0  0  0  0  0  0  0  0  0  0
    7.6932   -1.6001    0.0000 C   0  0  0  0  0  0  0  0  0  0  0  0
    9.1416   -1.9903    0.0000 C   0  0  0  0  0  0  0  0  0  0  0  0
   10.2037   -0.9311    0.0000 C   0  0  0  0  0  0  0  0  0  0  0  0
    9.8175    0.5183    0.0000 C   0  0  0  0  0  0  0  0  0  0  0  0
    2.9619    1.0200    0.0000 C   0  0  0  0  0  0  0  0  0  0  0  0
    1.5136    1.4103    0.0000 C   0  0  0  0  0  0  0  0  0  0  0  0
    0.4515    0.3511    0.0000 C   0  0  0  0  0  0  0  0  0  0  0  0
   -0.9969    0.7413    0.0000 F   0  0  0  0  0  0  0  0  0  0  0  0
   -2.0590   -0.3179    0.0000 C   0  0  0  0  0  0  0  0  0  0  0  0
   -3.5074    0.0723    0.0000 C   0  0  0  0  0  0  0  0  0  0  0  0
  1  2  1  0
  2  3  2  0
  3  4  1  0
  4  5  2  0
  5  6  1  0
  6  7  2  0
  7  8  1  0
  8  9  1  0
  9 10  2  0
  9 11  1  0
 11 12  1  0
 12 13  1  0
 13 14  1  0
 14 15  1  0
 15 16  2  0
 15 17  1  0
 17 18  2  0
 18 19  1  0
 19 20  1  0
 20 21  1  0
 21 22  2  0
 22 23  1  0
 23 24  1  0
 24 25  2  0
 24 26  1  0
 26 27  2  0
 27 28  1  0
 28 29  1  0
 29 30  1  0
 30 31  1  0
 19 32  2  0
 32 33  1  0
 33 34  2  0
 34 35  1  0
 14 36  1  0
 36 37  1  0
  7  2  1  0
 37 11  1  0
 34 17  1  0
 27 21  1  0
 31 26  1  0
M  END
$$$$

     RDKit          2D

 20 22  0  0  0  0  0  0  0  0999 V2000
    3.8169   -2.9821    0.0000 O   0  0  0  0  0  0  0  0  0  0  0  0
    2.7694   -1.9085    0.0000 C   0  0  0  0  0  0  0  0  0  0  0  0
    1.3159   -2.2788    0.0000 N   0  0  0  0  0  0  0  0  0  0  0  0
    0.2683   -1.2051    0.0000 N   0  0  0  0  0  0  0  0  0  0  0  0
    0.6744    0.2389    0.0000 C   0  0  0  0  0  0  0  0  0  0  0  0
   -0.3731    1.3125    0.0000 C   0  0  0  0  0  0  0  0  0  0  0  0
   -1.8267    0.9422    0.0000 C   0  0  0  0  0  0  0  0  0  0  0  0
   -2.8742    2.0158    0.0000 C   0  0  0  0  0  0  0  0  0  0  0  0
   -4.3277    1.6455    0.0000 C   0  0  0  0  0  0  0  0  0  0  0  0
   -4.7338    0.2015    0.0000 C   0  0  0  0  0  0  0  0  0  0  0  0
   -6.1874   -0.1689    0.0000 F   0  0  0  0  0  0  0  0  0  0  0  0
   -3.6863   -0.8722    0.0000 C   0  0  0  0  0  0  0  0  0  0  0  0
   -4.0923   -2.3162    0.0000 Cl  0  0  0  0  0  0  0  0  0  0  0  0
   -2.2327   -0.5018    0.0000 C   0  0  0  0  0  0  0  0  0  0  0  0
    2.1280    0.6092    0.0000 C   0  0  0  0  0  0  0  0  0  0  0  0
    3.1755   -0.4645    0.0000 C   0  0  0  0  0  0  0  0  0  0  0  0
    4.6290   -0.0941    0.0000 C   0  0  0  0  0  0  0  0  0  0  0  0
    5.0351    1.3499    0.0000 C   0  0  0  0  0  0  0  0  0  0  0  0
    3.9876    2.4235    0.0000 C   0  0  0  0  0  0  0  0  0  0  0  0
    2.5340    2.0532    0.0000 C   0  0  0  0  0  0  0  0  0  0  0  0
  1  2  2  0
  2  3  1  0
  3  4  1  0
  4  5  2  0
  5  6  1  0
  6  7  1  0
  7  8  2  0
  8  9  1  0
  9 10  2  0
 10 11  1  0
 10 12  1  0
 12 13  1  0
 12 14  2  0
  5 15  1  0
 15 16  2  0
 16 17  1  0
 17 18  1  0
 18 19  1  0
 19 20  1  0
 16  2  1  0
 14  7  1  0
 20 15  1  0
M  END
$$$$

     RDKit          2D

 22 24  0  0  0  0  0  0  0  0999 V2000
    5.6024   -0.9783    0.0000 C   0  0  0  0  0  0  0  0  0  0  0  0
    4.3140   -0.2103    0.0000 N   0  0  0  0  0  0  0  0  0  0  0  0
    4.3349    1.2896    0.0000 C   0  0  0  0  0  0  0  0  0  0  0  0
    5.6443    2.0214    0.0000 C   0  0  0  0  0  0  0  0  0  0  0  0
    5.6652    3.5213    0.0000 O   0  0  0  0  0  0  0  0  0  0  0  0
    3.0046   -0.9421    0.0000 C   0  0  0  0  0  0  0  0  0  0  0  0
    2.9837   -2.4419    0.0000 C   0  0  0  0  0  0  0  0  0  0  0  0
    1.6743   -3.1737    0.0000 C   0  0  0  0  0  0  0  0  0  0  0  0
    0.3859   -2.4057    0.0000 C   0  0  0  0  0  0  0  0  0  0  0  0
    0.4068   -0.9058    0.0000 C   0  0  0  0  0  0  0  0  0  0  0  0
   -0.8817   -0.1377    0.0000 C   0  0  0  0  0  0  0  0  0  0  0  0
   -2.2604   -0.7287    0.0000 C   0  0  0  0  0  0  0  0  0  0  0  0
   -3.2484    0.3999    0.0000 C   0  0  0  0  0  0  0  0  0  0  0  0
   -4.0164   -0.8885    0.0000 C   0  0  0  0  0  0  0  0  0  0  0  0
   -5.5163   -0.8676    0.0000 N   0  0  0  0  0  0  0  0  0  0  0  0
   -3.2846   -2.1979    0.0000 O   0  0  0  0  0  0  0  0  0  0  0  0
   -4.7111    0.7323    0.0000 C   0  0  0  0  0  0  0  0  0  0  0  0
   -4.8471    2.2261    0.0000 C   0  0  0  0  0  0  0  0  0  0  0  0
   -3.4684    2.8170    0.0000 C   0  0  0  0  0  0  0  0  0  0  0  0
   -2.4803    1.6884    0.0000 C   0  0  0  0  0  0  0  0  0  0  0  0
   -1.0176    1.3561    0.0000 N   0  0  0  0  0  0  0  0  0  0  0  0
    1.7162   -0.1740    0.0000 C   0  0  0  0  0  0  0  0  0  0  0  0
  1  2  1  0
  2  3  1  0
  3  4  1  0
  4  5  1  0
  2  6  1  0
  6  7  2  0
  7  8  1  0
  8  9  2  0
  9 10  1  0
 10 11  1  0
 11 12  2  0
 12 13  1  0
 13 14  1  0
 14 15  1  0
 14 16  2  0
 13 17  1  0
 17 18  2  0
 18 19  1  0
 19 20  2  0
 20 21  1  0
 10 22  2  0
 22  6  1  0
 21 11  1  0
 20 13  1  0
M  END
$$$$

     RDKit          2D

 28 31  0  0  0  0  0  0  0  0999 V2000
   -7.7488    0.2681    0.0000 C   0  0  0  0  0  0  0  0  0  0  0  0
   -6.3988    0.9219    0.0000 C   0  0  0  0  0  0  0  0  0  0  0  0
   -6.2900    2.4179    0.0000 C   0  0  0  0  0  0  0  0  0  0  0  0
   -4.9400    3.0717    0.0000 C   0  0  0  0  0  0  0  0  0  0  0  0
   -3.6988    2.2295    0.0000 C   0  0  0  0  0  0  0  0  0  0  0  0
   -3.8076    0.7335    0.0000 C   0  0  0  0  0  0  0  0  0  0  0  0
   -2.5663   -0.1088    0.0000 C   0  0  0  0  0  0  0  0  0  0  0  0
   -1.2163    0.5450    0.0000 O   0  0  0  0  0  0  0  0  0  0  0  0
   -2.6751   -1.6048    0.0000 N   0  0  0  0  0  0  0  0  0  0  0  0
   -1.4339   -2.4471    0.0000 C   0  0  0  0  0  0  0  0  0  0  0  0
   -1.5427   -3.9431    0.0000 C   0  0  0  0  0  0  0  0  0  0  0  0
   -0.3015   -4.7854    0.0000 C   0  0  0  0  0  0  0  0  0  0  0  0
    1.0485   -4.1316    0.0000 C   0  0  0  0  0  0  0  0  0  0  0  0
    1.1573   -2.6355    0.0000 C   0  0  0  0  0  0  0  0  0  0  0  0
    2.5073   -1.9817    0.0000 C   0  0  0  0  0  0  0  0  0  0  0  0
    2.6161   -0.4857    0.0000 C   0  0  0  0  0  0  0  0  0  0  0  0
    1.3749    0.3566    0.0000 N   0  0  0  0  0  0  0  0  0  0  0  0
    1.4837    1.8526    0.0000 N   0  0  0  0  0  0  0  0  0  0  0  0
    2.8337    2.5064    0.0000 C   0  0  0  0  0  0  0  0  0  0  0  0
    2.9425    4.0025    0.0000 O   0  0  0  0  0  0  0  0  0  0  0  0
    4.0749    1.6642    0.0000 C   0  0  0  0  0  0  0  0  0  0  0  0
    3.9661    0.1681    0.0000 C   0  0  0  0  0  0  0  0  0  0  0  0
    5.2074   -0.6741    0.0000 C   0  0  0  0  0  0  0  0  0  0  0  0
    6.5574   -0.0203    0.0000 C   0  0  0  0  0  0  0  0  0  0  0  0
    6.6662    1.4757    0.0000 C   0  0  0  0  0  0  0  0  0  0  0  0
    5.4250    2.3180    0.0000 C   0  0  0  0  0  0  0  0  0  0  0  0
   -0.0839   -1.7933    0.0000 C   0  0  0  0  0  0  0  0  0  0  0  0
   -5.1576    0.0796    0.0000 N   0  0  0  0  0  0  0  0  0  0  0  0
  1  2  1  0
  2  3  1  0
  3  4  1  0
  4  5  1  0
  5  6  1  0
  6  7  1  0
  7  8  2  0
  7  9  1  0
  9 10  1  0
 10 11  2  0
 11 12  1  0
 12 13  2  0
 13 14  1  0
 14 15  1  0
 15 16  1  0
 16 17  2  0
 17 18  1  0
 18 19  1  0
 19 20  2  0
 19 21  1  0
 21 22  2  0
 22 23  1  0
 23 24  1  0
 24 25  1  0
 25 26  1  0
 14 27  2  0
  6 28  2  0
 28  2  1  0
 27 10  1  0
 22 16  1  0
 26 21  1  0
M  END
$$$$

     RDKit          2D

 24 26  0  0  0  0  0  0  0  0999 V2000
    9.2037   -2.0401    0.0000 C   0  0  0  0  0  0  0  0  0  0  0  0
    8.3192   -0.8287    0.0000 C   0  0  0  0  0  0  0  0  0  0  0  0
    8.9260    0.5431    0.0000 N   0  0  0  0  0  0  0  0  0  0  0  0
    6.8278   -0.9890    0.0000 C   0  0  0  0  0  0  0  0  0  0  0  0
    5.9432    0.2225    0.0000 C   0  0  0  0  0  0  0  0  0  0  0  0
    4.4518    0.0621    0.0000 O   0  0  0  0  0  0  0  0  0  0  0  0
    3.5673    1.2736    0.0000 C   0  0  0  0  0  0  0  0  0  0  0  0
    2.0759    1.1133    0.0000 N   0  0  0  0  0  0  0  0  0  0  0  0
    1.4690   -0.2585    0.0000 C   0  0  0  0  0  0  0  0  0  0  0  0
   -0.0224   -0.4188    0.0000 C   0  0  0  0  0  0  0  0  0  0  0  0
   -0.9070    0.7926    0.0000 N   0  0  0  0  0  0  0  0  0  0  0  0
   -2.3984    0.6323    0.0000 C   0  0  0  0  0  0  0  0  0  0  0  0
   -3.1453   -0.6685    0.0000 N   0  0  0  0  0  0  0  0  0  0  0  0
   -4.6132   -0.3601    0.0000 C   0  0  0  0  0  0  0  0  0  0  0  0
   -4.4529   -1.8515    0.0000 C   0  0  0  0  0  0  0  0  0  0  0  0
   -5.6644   -2.7361    0.0000 N   0  0  0  0  0  0  0  0  0  0  0  0
   -3.0812   -2.4584    0.0000 O   0  0  0  0  0  0  0  0  0  0  0  0
   -5.9821   -0.9735    0.0000 C   0  0  0  0  0  0  0  0  0  0  0  0
   -6.9884    0.1389    0.0000 C   0  0  0  0  0  0  0  0  0  0  0  0
   -6.2415    1.4397    0.0000 C   0  0  0  0  0  0  0  0  0  0  0  0
   -4.7736    1.1313    0.0000 C   0  0  0  0  0  0  0  0  0  0  0  0
   -3.4047    1.7446    0.0000 N   0  0  0  0  0  0  0  0  0  0  0  0
   -0.3001    2.1644    0.0000 C   0  0  0  0  0  0  0  0  0  0  0  0
    1.1913    2.3247    0.0000 C   0  0  0  0  0  0  0  0  0  0  0  0
  1  2  1  0
  2  3  1  0
  2  4  1  0
  4  5  1  0
  5  6  1  0
  6  7  1  0
  7  8  1  0
  8  9  1  0
  9 10  1  0
 10 11  1  0
 11 12  1  0
 12 13  2  0
 13 14  1  0
 14 15  1  0
 15 16  1  0
 15 17  2  0
 14 18  1  0
 18 19  2  0
 19 20  1  0
 20 21  2  0
 21 22  1  0
 11 23  1  0
 23 24  1  0
 24  8  1  0
 22 12  1  0
 21 14  1  0
M  END
$$$$

     RDKit          2D

 30 33  0  0  0  0  0  0  0  0999 V2000
   -8.3301    2.2313    0.0000 C   0  0  0  0  0  0  0  0  0  0  0  0
   -8.1343    0.7441    0.0000 C   0  0  0  0  0  0  0  0  0  0  0  0
   -9.3242   -0.1691    0.0000 O   0  0  0  0  0  0  0  0  0  0  0  0
   -6.7484    0.1702    0.0000 N   0  0  0  0  0  0  0  0  0  0  0  0
   -5.5584    1.0834    0.0000 C   0  0  0  0  0  0  0  0  0  0  0  0
   -4.1726    0.5095    0.0000 C   0  0  0  0  0  0  0  0  0  0  0  0
   -3.9767   -0.9777    0.0000 N   0  0  0  0  0  0  0  0  0  0  0  0
   -2.5908   -1.5516    0.0000 C   0  0  0  0  0  0  0  0  0  0  0  0
   -2.3950   -3.0388    0.0000 O   0  0  0  0  0  0  0  0  0  0  0  0
   -1.4009   -0.6384    0.0000 C   0  0  0  0  0  0  0  0  0  0  0  0
   -0.0150   -1.2123    0.0000 C   0  0  0  0  0  0  0  0  0  0  0  0
    1.1750   -0.2991    0.0000 C   0  0  0  0  0  0  0  0  0  0  0  0
    2.5608   -0.8731    0.0000 C   0  0  0  0  0  0  0  0  0  0  0  0
    3.7508    0.0401    0.0000 C   0  0  0  0  0  0  0  0  0  0  0  0
    3.5549    1.5273    0.0000 N   0  0  0  0  0  0  0  0  0  0  0  0
    4.7449    2.4405    0.0000 N   0  0  0  0  0  0  0  0  0  0  0  0
    6.1307    1.8666    0.0000 C   0  0  0  0  0  0  0  0  0  0  0  0
    7.3207    2.7798    0.0000 O   0  0  0  0  0  0  0  0  0  0  0  0
    6.3266    0.3794    0.0000 C   0  0  0  0  0  0  0  0  0  0  0  0
    5.1366   -0.5338    0.0000 C   0  0  0  0  0  0  0  0  0  0  0  0
    5.3325   -2.0209    0.0000 C   0  0  0  0  0  0  0  0  0  0  0  0
    6.7184   -2.5949    0.0000 C   0  0  0  0  0  0  0  0  0  0  0  0
    7.9083   -1.6817    0.0000 C   0  0  0  0  0  0  0  0  0  0  0  0
    7.7125   -0.1945    0.0000 C   0  0  0  0  0  0  0  0  0  0  0  0
    0.9791    1.1880    0.0000 C   0  0  0  0  0  0  0  0  0  0  0  0
   -0.4068    1.7620    0.0000 C   0  0  0  0  0  0  0  0  0  0  0  0
   -1.5968    0.8488    0.0000 C   0  0  0  0  0  0  0  0  0  0  0  0
   -2.9826    1.4227    0.0000 F   0  0  0  0  0  0  0  0  0  0  0  0
   -5.1667   -1.8909    0.0000 C   0  0  0  0  0  0  0  0  0  0  0  0
   -6.5525   -1.3170    0.0000 C   0  0  0  0  0  0  0  0  0  0  0  0
  1  2  1  0
  2  3  2  0
  2  4  1  0
  4  5  1  0
  5  6  1  0
  6  7  1  0
  7  8  1  0
  8  9  2  0
  8 10  1  0
 10 11  2  0
 11 12  1  0
 12 13  1  0
 13 14  1  0
 14 15  2  0
 15 16  1  0
 16 17  1  0
 17 18  2  0
 17 19  1  0
 19 20  2  0
 20 21  1  0
 21 22  1  0
 22 23  1  0
 23 24  1  0
 12 25  2  0
 25 26  1  0
 26 27  2  0
 27 28  1  0
  7 29  1  0
 29 30  1  0
 30  4  1  0
 27 10  1  0
 20 14  1  0
 24 19  1  0
M  END
$$$$

     RDKit          2D

 20 22  0  0  0  0  0  0  0  0999 V2000
   -6.2249   -2.0145    0.0000 C   0  0  0  0  0  0  0  0  0  0  0  0
   -4.7257   -1.9663    0.0000 C   0  0  0  0  0  0  0  0  0  0  0  0
   -4.0178   -0.6438    0.0000 N   0  0  0  0  0  0  0  0  0  0  0  0
   -4.8092    0.6305    0.0000 C   0  0  0  0  0  0  0  0  0  0  0  0
   -4.1014    1.9530    0.0000 C   0  0  0  0  0  0  0  0  0  0  0  0
   -2.6022    2.0012    0.0000 C   0  0  0  0  0  0  0  0  0  0  0  0
   -1.8108    0.7269    0.0000 C   0  0  0  0  0  0  0  0  0  0  0  0
   -0.3115    0.7752    0.0000 C   0  0  0  0  0  0  0  0  0  0  0  0
    0.6087   -0.4094    0.0000 N   0  0  0  0  0  0  0  0  0  0  0  0
    2.0196    0.0998    0.0000 C   0  0  0  0  0  0  0  0  0  0  0  0
    3.3421   -0.6080    0.0000 C   0  0  0  0  0  0  0  0  0  0  0  0
    3.3904   -2.1072    0.0000 C   0  0  0  0  0  0  0  0  0  0  0  0
    4.7129   -2.8151    0.0000 N   0  0  0  0  0  0  0  0  0  0  0  0
    2.1161   -2.8986    0.0000 O   0  0  0  0  0  0  0  0  0  0  0  0
    4.6164    0.1834    0.0000 C   0  0  0  0  0  0  0  0  0  0  0  0
    4.5681    1.6826    0.0000 C   0  0  0  0  0  0  0  0  0  0  0  0
    3.2456    2.3904    0.0000 C   0  0  0  0  0  0  0  0  0  0  0  0
    1.9714    1.5990    0.0000 C   0  0  0  0  0  0  0  0  0  0  0  0
    0.5306    2.0164    0.0000 N   0  0  0  0  0  0  0  0  0  0  0  0
   -2.5186   -0.5955    0.0000 C   0  0  0  0  0  0  0  0  0  0  0  0
  1  2  1  0
  2  3  1  0
  3  4  1  0
  4  5  1  0
  5  6  1  0
  6  7  1  0
  7  8  1  0
  8  9  2  0
  9 10  1  0
 10 11  2  0
 11 12  1  0
 12 13  1  0
 12 14  2  0
 11 15  1  0
 15 16  2  0
 16 17  1  0
 17 18  2  0
 18 19  1  0
  7 20  1  0
 20  3  1  0
 19  8  1  0
 18 10  1  0
M  END
$$$$

     RDKit          2D

 23 25  0  0  0  0  0  0  0  0999 V2000
   -7.5932    2.5404    0.0000 C   0  0  0  0  0  0  0  0  0  0  0  0
   -7.0496    1.1424    0.0000 C   0  0  0  0  0  0  0  0  0  0  0  0
   -5.5670    0.9142    0.0000 N   0  0  0  0  0  0  0  0  0  0  0  0
   -5.0234   -0.4839    0.0000 C   0  0  0  0  0  0  0  0  0  0  0  0
   -5.9623   -1.6537    0.0000 O   0  0  0  0  0  0  0  0  0  0  0  0
   -3.5409   -0.7121    0.0000 C   0  0  0  0  0  0  0  0  0  0  0  0
   -2.6020    0.4577    0.0000 C   0  0  0  0  0  0  0  0  0  0  0  0
   -1.1194    0.2295    0.0000 C   0  0  0  0  0  0  0  0  0  0  0  0
   -0.5758   -1.1686    0.0000 C   0  0  0  0  0  0  0  0  0  0  0  0
    0.9067   -1.3968    0.0000 C   0  0  0  0  0  0  0  0  0  0  0  0
    1.8456   -0.2270    0.0000 C   0  0  0  0  0  0  0  0  0  0  0  0
    1.3020    1.1710    0.0000 N   0  0  0  0  0  0  0  0  0  0  0  0
    2.2409    2.3408    0.0000 N   0  0  0  0  0  0  0  0  0  0  0  0
    3.7235    2.1126    0.0000 C   0  0  0  0  0  0  0  0  0  0  0  0
    4.6624    3.2824    0.0000 O   0  0  0  0  0  0  0  0  0  0  0  0
    4.2671    0.7146    0.0000 C   0  0  0  0  0  0  0  0  0  0  0  0
    3.3282   -0.4552    0.0000 C   0  0  0  0  0  0  0  0  0  0  0  0
    3.8718   -1.8532    0.0000 C   0  0  0  0  0  0  0  0  0  0  0  0
    5.3543   -2.0815    0.0000 C   0  0  0  0  0  0  0  0  0  0  0  0
    6.2933   -0.9117    0.0000 C   0  0  0  0  0  0  0  0  0  0  0  0
    5.7496    0.4864    0.0000 C   0  0  0  0  0  0  0  0  0  0  0  0
   -1.5147   -2.3384    0.0000 C   0  0  0  0  0  0  0  0  0  0  0  0
   -2.9973   -2.1101    0.0000 C   0  0  0  0  0  0  0  0  0  0  0  0
  1  2  1  0
  2  3  1  0
  3  4  1  0
  4  5  2  0
  4  6  1  0
  6  7  2  0
  7  8  1  0
  8  9  2  0
  9 10  1  0
 10 11  1  0
 11 12  2  0
 12 13  1  0
 13 14  1  0
 14 15  2  0
 14 16  1  0
 16 17  2  0
 17 18  1  0
 18 19  1  0
 19 20  1  0
 20 21  1  0
  9 22  1  0
 22 23  2  0
 23  6  1  0
 17 11  1  0
 21 16  1  0
M  END
$$$$

     RDKit          2D

 27 29  0  0  0  0  0  0  0  0999 V2000
   -5.2555    4.6212    0.0000 C   0  0  0  0  0  0  0  0  0  0  0  0
   -5.3658    3.1252    0.0000 N   0  0  0  0  0  0  0  0  0  0  0  0
   -6.7164    2.4728    0.0000 C   0  0  0  0  0  0  0  0  0  0  0  0
   -4.1254    2.2817    0.0000 C   0  0  0  0  0  0  0  0  0  0  0  0
   -4.2357    0.7858    0.0000 C   0  0  0  0  0  0  0  0  0  0  0  0
   -2.9953   -0.0577    0.0000 C   0  0  0  0  0  0  0  0  0  0  0  0
   -1.6447    0.5948    0.0000 O   0  0  0  0  0  0  0  0  0  0  0  0
   -3.1056   -1.5536    0.0000 N   0  0  0  0  0  0  0  0  0  0  0  0
   -1.8653   -2.3971    0.0000 C   0  0  0  0  0  0  0  0  0  0  0  0
   -0.5146   -1.7447    0.0000 C   0  0  0  0  0  0  0  0  0  0  0  0
    0.7258   -2.5882    0.0000 C   0  0  0  0  0  0  0  0  0  0  0  0
    2.0765   -1.9357    0.0000 C   0  0  0  0  0  0  0  0  0  0  0  0
    2.1868   -0.4398    0.0000 C   0  0  0  0  0  0  0  0  0  0  0  0
    0.9464    0.4037    0.0000 N   0  0  0  0  0  0  0  0  0  0  0  0
    1.0567    1.8997    0.0000 N   0  0  0  0  0  0  0  0  0  0  0  0
    2.4074    2.5521    0.0000 C   0  0  0  0  0  0  0  0  0  0  0  0
    2.5177    4.0481    0.0000 O   0  0  0  0  0  0  0  0  0  0  0  0
    3.6477    1.7086    0.0000 C   0  0  0  0  0  0  0  0  0  0  0  0
    3.5374    0.2127    0.0000 C   0  0  0  0  0  0  0  0  0  0  0  0
    4.7778   -0.6308    0.0000 C   0  0  0  0  0  0  0  0  0  0  0  0
    6.1285    0.0216    0.0000 C   0  0  0  0  0  0  0  0  0  0  0  0
    6.2388    1.5176    0.0000 C   0  0  0  0  0  0  0  0  0  0  0  0
    4.9984    2.3611    0.0000 C   0  0  0  0  0  0  0  0  0  0  0  0
    0.6155   -4.0841    0.0000 C   0  0  0  0  0  0  0  0  0  0  0  0
   -0.7352   -4.7365    0.0000 C   0  0  0  0  0  0  0  0  0  0  0  0
   -1.9755   -3.8931    0.0000 C   0  0  0  0  0  0  0  0  0  0  0  0
   -3.3262   -4.5455    0.0000 F   0  0  0  0  0  0  0  0  0  0  0  0
  1  2  1  0
  2  3  1  0
  2  4  1  0
  4  5  1  0
  5  6  1  0
  6  7  2  0
  6  8  1  0
  8  9  1  0
  9 10  2  0
 10 11  1  0
 11 12  1  0
 12 13  1  0
 13 14  2  0
 14 15  1  0
 15 16  1  0
 16 17  2  0
 16 18  1  0
 18 19  2  0
 19 20  1  0
 20 21  1  0
 21 22  1  0
 22 23  1  0
 11 24  2  0
 24 25  1  0
 25 26  2  0
 26 27  1  0
 26  9  1  0
 19 13  1  0
 23 18  1  0
M  END
$$$$

     RDKit          2D

 36 40  0  0  0  0  0  0  0  0999 V2000
  -10.3485    2.5008    0.0000 C   0  0  0  0  0  0  0  0  0  0  0  0
   -8.8870    2.1633    0.0000 N   0  0  0  0  0  0  0  0  0  0  0  0
   -7.8639    3.2603    0.0000 C   0  0  0  0  0  0  0  0  0  0  0  0
   -6.4024    2.9228    0.0000 C   0  0  0  0  0  0  0  0  0  0  0  0
   -5.9639    1.4883    0.0000 C   0  0  0  0  0  0  0  0  0  0  0  0
   -6.9869    0.3913    0.0000 C   0  0  0  0  0  0  0  0  0  0  0  0
   -6.5485   -1.0432    0.0000 C   0  0  0  0  0  0  0  0  0  0  0  0
   -7.5715   -2.1401    0.0000 O   0  0  0  0  0  0  0  0  0  0  0  0
   -5.0869   -1.3807    0.0000 N   0  0  0  0  0  0  0  0  0  0  0  0
   -4.6484   -2.8151    0.0000 C   0  0  0  0  0  0  0  0  0  0  0  0
   -3.1869   -3.1526    0.0000 C   0  0  0  0  0  0  0  0  0  0  0  0
   -2.1638   -2.0557    0.0000 N   0  0  0  0  0  0  0  0  0  0  0  0
   -0.7023   -2.3932    0.0000 C   0  0  0  0  0  0  0  0  0  0  0  0
   -0.2638   -3.8276    0.0000 O   0  0  0  0  0  0  0  0  0  0  0  0
    0.3207   -1.2962    0.0000 C   0  0  0  0  0  0  0  0  0  0  0  0
    1.7823   -1.6337    0.0000 C   0  0  0  0  0  0  0  0  0  0  0  0
    2.8053   -0.5367    0.0000 C   0  0  0  0  0  0  0  0  0  0  0  0
    4.2669   -0.8742    0.0000 C   0  0  0  0  0  0  0  0  0  0  0  0
    5.2899    0.2228    0.0000 C   0  0  0  0  0  0  0  0  0  0  0  0
    4.8514    1.6572    0.0000 N   0  0  0  0  0  0  0  0  0  0  0  0
    5.8745    2.7542    0.0000 N   0  0  0  0  0  0  0  0  0  0  0  0
    7.3360    2.4167    0.0000 C   0  0  0  0  0  0  0  0  0  0  0  0
    8.3591    3.5137    0.0000 O   0  0  0  0  0  0  0  0  0  0  0  0
    7.7745    0.9822    0.0000 C   0  0  0  0  0  0  0  0  0  0  0  0
    6.7515   -0.1147    0.0000 C   0  0  0  0  0  0  0  0  0  0  0  0
    7.1899   -1.5492    0.0000 C   0  0  0  0  0  0  0  0  0  0  0  0
    8.6515   -1.8867    0.0000 C   0  0  0  0  0  0  0  0  0  0  0  0
    9.6745   -0.7898    0.0000 C   0  0  0  0  0  0  0  0  0  0  0  0
    9.2361    0.6447    0.0000 C   0  0  0  0  0  0  0  0  0  0  0  0
    2.3669    0.8978    0.0000 C   0  0  0  0  0  0  0  0  0  0  0  0
    0.9053    1.2353    0.0000 C   0  0  0  0  0  0  0  0  0  0  0  0
   -0.1177    0.1383    0.0000 C   0  0  0  0  0  0  0  0  0  0  0  0
   -1.5793    0.4758    0.0000 F   0  0  0  0  0  0  0  0  0  0  0  0
   -2.6023   -0.6212    0.0000 C   0  0  0  0  0  0  0  0  0  0  0  0
   -4.0639   -0.2837    0.0000 C   0  0  0  0  0  0  0  0  0  0  0  0
   -8.4485    0.7288    0.0000 C   0  0  0  0  0  0  0  0  0  0  0  0
  1  2  1  0
  2  3  1  0
  3  4  1  0
  4  5  1  0
  5  6  1  0
  6  7  1  0
  7  8  2  0
  7  9  1  0
  9 10  1  0
 10 11  1  0
 11 12  1  0
 12 13  1  0
 13 14  2  0
 13 15  1  0
 15 16  2  0
 16 17  1  0
 17 18  1  0
 18 19  1  0
 19 20  2  0
 20 21  1  0
 21 22  1  0
 22 23  2  0
 22 24  1  0
 24 25  2  0
 25 26  1  0
 26 27  1  0
 27 28  1  0
 28 29  1  0
 17 30  2  0
 30 31  1  0
 31 32  2  0
 32 33  1  0
 12 34  1  0
 34 35  1  0
  6 36  1  0
 36  2  1  0
 35  9  1  0
 32 15  1  0
 25 19  1  0
 29 24  1  0
M  END
$$$$

     RDKit          2D

 26 29  0  0  0  0  0  0  0  0999 V2000
   -3.0905   -2.4897    0.0000 O   0  0  0  0  0  0  0  0  0  0  0  0
   -4.3305   -1.6457    0.0000 C   0  0  0  0  0  0  0  0  0  0  0  0
   -5.6815   -2.2975    0.0000 N   0  0  0  0  0  0  0  0  0  0  0  0
   -6.9215   -1.4534    0.0000 C   0  0  0  0  0  0  0  0  0  0  0  0
   -6.8105    0.0425    0.0000 C   0  0  0  0  0  0  0  0  0  0  0  0
   -5.4595    0.6943    0.0000 C   0  0  0  0  0  0  0  0  0  0  0  0
   -4.2195   -0.1498    0.0000 N   0  0  0  0  0  0  0  0  0  0  0  0
   -2.8686    0.5021    0.0000 C   0  0  0  0  0  0  0  0  0  0  0  0
   -1.6286   -0.3420    0.0000 C   0  0  0  0  0  0  0  0  0  0  0  0
   -0.2776    0.3098    0.0000 C   0  0  0  0  0  0  0  0  0  0  0  0
    0.9624   -0.5342    0.0000 C   0  0  0  0  0  0  0  0  0  0  0  0
    2.3133    0.1176    0.0000 C   0  0  0  0  0  0  0  0  0  0  0  0
    2.4243    1.6135    0.0000 N   0  0  0  0  0  0  0  0  0  0  0  0
    3.7753    2.2654    0.0000 N   0  0  0  0  0  0  0  0  0  0  0  0
    5.0153    1.4213    0.0000 C   0  0  0  0  0  0  0  0  0  0  0  0
    6.3662    2.0731    0.0000 O   0  0  0  0  0  0  0  0  0  0  0  0
    4.9043   -0.0746    0.0000 C   0  0  0  0  0  0  0  0  0  0  0  0
    3.5533   -0.7264    0.0000 C   0  0  0  0  0  0  0  0  0  0  0  0
    3.4424   -2.2223    0.0000 C   0  0  0  0  0  0  0  0  0  0  0  0
    4.6823   -3.0664    0.0000 C   0  0  0  0  0  0  0  0  0  0  0  0
    6.0333   -2.4145    0.0000 C   0  0  0  0  0  0  0  0  0  0  0  0
    6.1443   -0.9186    0.0000 C   0  0  0  0  0  0  0  0  0  0  0  0
   -0.1666    1.8057    0.0000 C   0  0  0  0  0  0  0  0  0  0  0  0
   -1.4066    2.6498    0.0000 C   0  0  0  0  0  0  0  0  0  0  0  0
   -2.7576    1.9980    0.0000 C   0  0  0  0  0  0  0  0  0  0  0  0
   -3.9976    2.8420    0.0000 F   0  0  0  0  0  0  0  0  0  0  0  0
  1  2  2  0
  2  3  1  0
  3  4  1  0
  4  5  1  0
  5  6  1  0
  6  7  1  0
  7  8  1  0
  8  9  2  0
  9 10  1  0
 10 11  1  0
 11 12  1  0
 12 13  2  0
 13 14  1  0
 14 15  1  0
 15 16  2  0
 15 17  1  0
 17 18  2  0
 18 19  1  0
 19 20  1  0
 20 21  1  0
 21 22  1  0
 10 23  2  0
 23 24  1  0
 24 25  2  0
 25 26  1  0
  7  2  1  0
 25  8  1  0
 18 12  1  0
 22 17  1  0
M  END
$$$$

     RDKit          2D

 25 28  0  0  0  0  0  0  0  0999 V2000
   -6.0166    1.3798    0.0000 O   0  0  0  0  0  0  0  0  0  0  0  0
   -5.7067   -0.0878    0.0000 C   0  0  0  0  0  0  0  0  0  0  0  0
   -6.7119   -1.2012    0.0000 N   0  0  0  0  0  0  0  0  0  0  0  0
   -5.9636   -2.5012    0.0000 C   0  0  0  0  0  0  0  0  0  0  0  0
   -4.4960   -2.1913    0.0000 C   0  0  0  0  0  0  0  0  0  0  0  0
   -4.3372   -0.6997    0.0000 N   0  0  0  0  0  0  0  0  0  0  0  0
   -3.0372    0.0485    0.0000 C   0  0  0  0  0  0  0  0  0  0  0  0
   -1.7391   -0.7032    0.0000 C   0  0  0  0  0  0  0  0  0  0  0  0
   -0.4391    0.0451    0.0000 C   0  0  0  0  0  0  0  0  0  0  0  0
    0.8589   -0.7066    0.0000 C   0  0  0  0  0  0  0  0  0  0  0  0
    2.1590    0.0416    0.0000 C   0  0  0  0  0  0  0  0  0  0  0  0
    2.1610    1.5416    0.0000 N   0  0  0  0  0  0  0  0  0  0  0  0
    3.4610    2.2899    0.0000 N   0  0  0  0  0  0  0  0  0  0  0  0
    4.7590    1.5382    0.0000 C   0  0  0  0  0  0  0  0  0  0  0  0
    6.0591    2.2865    0.0000 O   0  0  0  0  0  0  0  0  0  0  0  0
    4.7570    0.0382    0.0000 C   0  0  0  0  0  0  0  0  0  0  0  0
    3.4570   -0.7101    0.0000 C   0  0  0  0  0  0  0  0  0  0  0  0
    3.4550   -2.2101    0.0000 N   0  0  0  0  0  0  0  0  0  0  0  0
    4.7531   -2.9618    0.0000 C   0  0  0  0  0  0  0  0  0  0  0  0
    6.0531   -2.2135    0.0000 C   0  0  0  0  0  0  0  0  0  0  0  0
    6.0551   -0.7135    0.0000 C   0  0  0  0  0  0  0  0  0  0  0  0
   -0.4371    1.5451    0.0000 C   0  0  0  0  0  0  0  0  0  0  0  0
   -1.7352    2.2968    0.0000 C   0  0  0  0  0  0  0  0  0  0  0  0
   -3.0352    1.5485    0.0000 C   0  0  0  0  0  0  0  0  0  0  0  0
   -4.3332    2.3003    0.0000 F   0  0  0  0  0  0  0  0  0  0  0  0
  1  2  2  0
  2  3  1  0
  3  4  1  0
  4  5  1  0
  5  6  1  0
  6  7  1  0
  7  8  2  0
  8  9  1  0
  9 10  1  0
 10 11  1  0
 11 12  2  0
 12 13  1  0
 13 14  1  0
 14 15  2  0
 14 16  1  0
 16 17  2  0
 17 18  1  0
 18 19  1  0
 19 20  1  0
 20 21  1  0
  9 22  2  0
 22 23  1  0
 23 24  2  0
 24 25  1  0
  6  2  1  0
 24  7  1  0
 17 11  1  0
 21 16  1  0
M  END
$$$$

     RDKit          2D

 21 23  0  0  0  0  0  0  0  0999 V2000
   -6.0991    1.7971    0.0000 O   0  0  0  0  0  0  0  0  0  0  0  0
   -5.7185    0.3462    0.0000 C   0  0  0  0  0  0  0  0  0  0  0  0
   -6.7848   -0.7089    0.0000 F   0  0  0  0  0  0  0  0  0  0  0  0
   -4.2717   -0.0497    0.0000 C   0  0  0  0  0  0  0  0  0  0  0  0
   -3.2055    1.0053    0.0000 C   0  0  0  0  0  0  0  0  0  0  0  0
   -1.7586    0.6095    0.0000 C   0  0  0  0  0  0  0  0  0  0  0  0
   -1.3781   -0.8415    0.0000 C   0  0  0  0  0  0  0  0  0  0  0  0
    0.0687   -1.2373    0.0000 C   0  0  0  0  0  0  0  0  0  0  0  0
    1.1350   -0.1823    0.0000 C   0  0  0  0  0  0  0  0  0  0  0  0
    0.7544    1.2686    0.0000 N   0  0  0  0  0  0  0  0  0  0  0  0
    1.8207    2.3237    0.0000 N   0  0  0  0  0  0  0  0  0  0  0  0
    3.2675    1.9278    0.0000 C   0  0  0  0  0  0  0  0  0  0  0  0
    4.3337    2.9829    0.0000 O   0  0  0  0  0  0  0  0  0  0  0  0
    3.6481    0.4769    0.0000 C   0  0  0  0  0  0  0  0  0  0  0  0
    2.5818   -0.5782    0.0000 C   0  0  0  0  0  0  0  0  0  0  0  0
    2.9624   -2.0291    0.0000 C   0  0  0  0  0  0  0  0  0  0  0  0
    4.4092   -2.4249    0.0000 C   0  0  0  0  0  0  0  0  0  0  0  0
    5.4754   -1.3699    0.0000 C   0  0  0  0  0  0  0  0  0  0  0  0
    5.0949    0.0810    0.0000 C   0  0  0  0  0  0  0  0  0  0  0  0
   -2.4443   -1.8965    0.0000 C   0  0  0  0  0  0  0  0  0  0  0  0
   -3.8911   -1.5006    0.0000 C   0  0  0  0  0  0  0  0  0  0  0  0
  1  2  2  0
  2  3  1  0
  2  4  1  0
  4  5  2  0
  5  6  1  0
  6  7  2  0
  7  8  1  0
  8  9  1  0
  9 10  2  0
 10 11  1  0
 11 12  1  0
 12 13  2  0
 12 14  1  0
 14 15  2  0
 15 16  1  0
 16 17  1  0
 17 18  1  0
 18 19  1  0
  7 20  1  0
 20 21  2  0
 21  4  1  0
 15  9  1  0
 19 14  1  0
M  END
$$$$

     RDKit          2D

 31 34  0  0  0  0  0  0  0  0999 V2000
   -6.8352    4.1065    0.0000 C   0  0  0  0  0  0  0  0  0  0  0  0
   -5.8777    2.9519    0.0000 N   0  0  0  0  0  0  0  0  0  0  0  0
   -6.3988    1.5453    0.0000 C   0  0  0  0  0  0  0  0  0  0  0  0
   -5.4413    0.3907    0.0000 C   0  0  0  0  0  0  0  0  0  0  0  0
   -3.9626    0.6426    0.0000 C   0  0  0  0  0  0  0  0  0  0  0  0
   -3.0051   -0.5120    0.0000 C   0  0  0  0  0  0  0  0  0  0  0  0
   -3.5262   -1.9185    0.0000 C   0  0  0  0  0  0  0  0  0  0  0  0
   -2.5687   -3.0732    0.0000 N   0  0  0  0  0  0  0  0  0  0  0  0
   -1.0900   -2.8212    0.0000 C   0  0  0  0  0  0  0  0  0  0  0  0
   -0.5689   -1.4147    0.0000 O   0  0  0  0  0  0  0  0  0  0  0  0
   -0.1325   -3.9758    0.0000 C   0  0  0  0  0  0  0  0  0  0  0  0
    1.3462   -3.7239    0.0000 C   0  0  0  0  0  0  0  0  0  0  0  0
    2.3037   -4.8785    0.0000 C   0  0  0  0  0  0  0  0  0  0  0  0
    3.7824   -4.6266    0.0000 C   0  0  0  0  0  0  0  0  0  0  0  0
    4.3036   -3.2200    0.0000 C   0  0  0  0  0  0  0  0  0  0  0  0
    3.3460   -2.0654    0.0000 C   0  0  0  0  0  0  0  0  0  0  0  0
    3.8672   -0.6589    0.0000 C   0  0  0  0  0  0  0  0  0  0  0  0
    2.9097    0.4957    0.0000 C   0  0  0  0  0  0  0  0  0  0  0  0
    1.4310    0.2438    0.0000 N   0  0  0  0  0  0  0  0  0  0  0  0
    0.4735    1.3984    0.0000 N   0  0  0  0  0  0  0  0  0  0  0  0
    0.9946    2.8050    0.0000 C   0  0  0  0  0  0  0  0  0  0  0  0
    0.0371    3.9596    0.0000 O   0  0  0  0  0  0  0  0  0  0  0  0
    2.4733    3.0569    0.0000 C   0  0  0  0  0  0  0  0  0  0  0  0
    3.4308    1.9023    0.0000 C   0  0  0  0  0  0  0  0  0  0  0  0
    4.9095    2.1542    0.0000 C   0  0  0  0  0  0  0  0  0  0  0  0
    5.4307    3.5608    0.0000 C   0  0  0  0  0  0  0  0  0  0  0  0
    4.4732    4.7154    0.0000 C   0  0  0  0  0  0  0  0  0  0  0  0
    2.9945    4.4635    0.0000 C   0  0  0  0  0  0  0  0  0  0  0  0
    1.8674   -2.3174    0.0000 C   0  0  0  0  0  0  0  0  0  0  0  0
   -5.0049   -2.1705    0.0000 C   0  0  0  0  0  0  0  0  0  0  0  0
   -5.9625   -1.0159    0.0000 C   0  0  0  0  0  0  0  0  0  0  0  0
  1  2  1  0
  2  3  2  3
  3  4  1  0
  4  5  2  0
  5  6  1  0
  6  7  2  0
  7  8  1  0
  8  9  1  0
  9 10  2  0
  9 11  1  0
 11 12  1  0
 12 13  2  0
 13 14  1  0
 14 15  2  0
 15 16  1  0
 16 17  1  0
 17 18  1  0
 18 19  2  0
 19 20  1  0
 20 21  1  0
 21 22  2  0
 21 23  1  0
 23 24  2  0
 24 25  1  0
 25 26  1  0
 26 27  1  0
 27 28  1  0
 16 29  2  0
  7 30  1  0
 30 31  2  0
 31  4  1  0
 29 12  1  0
 24 18  1  0
 28 23  1  0
M  END
$$$$

     RDKit          2D

 33 37  0  0  0  0  0  0  0  0999 V2000
   -1.3015   -3.2547    0.0000 O   0  0  0  0  0  0  0  0  0  0  0  0
   -1.5636   -1.7778    0.0000 C   0  0  0  0  0  0  0  0  0  0  0  0
   -0.4156   -0.8124    0.0000 C   0  0  0  0  0  0  0  0  0  0  0  0
    0.9945   -1.3239    0.0000 C   0  0  0  0  0  0  0  0  0  0  0  0
    2.1426   -0.3584    0.0000 C   0  0  0  0  0  0  0  0  0  0  0  0
    3.5527   -0.8699    0.0000 C   0  0  0  0  0  0  0  0  0  0  0  0
    4.7007    0.0955    0.0000 C   0  0  0  0  0  0  0  0  0  0  0  0
    4.4386    1.5724    0.0000 N   0  0  0  0  0  0  0  0  0  0  0  0
    5.5866    2.5379    0.0000 N   0  0  0  0  0  0  0  0  0  0  0  0
    6.9967    2.0264    0.0000 C   0  0  0  0  0  0  0  0  0  0  0  0
    8.1447    2.9918    0.0000 O   0  0  0  0  0  0  0  0  0  0  0  0
    7.2588    0.5495    0.0000 C   0  0  0  0  0  0  0  0  0  0  0  0
    6.1108   -0.4160    0.0000 C   0  0  0  0  0  0  0  0  0  0  0  0
    6.3728   -1.8929    0.0000 C   0  0  0  0  0  0  0  0  0  0  0  0
    7.7829   -2.4044    0.0000 C   0  0  0  0  0  0  0  0  0  0  0  0
    8.9310   -1.4390    0.0000 C   0  0  0  0  0  0  0  0  0  0  0  0
    8.6689    0.0380    0.0000 C   0  0  0  0  0  0  0  0  0  0  0  0
    1.8805    1.1185    0.0000 C   0  0  0  0  0  0  0  0  0  0  0  0
    0.4704    1.6300    0.0000 C   0  0  0  0  0  0  0  0  0  0  0  0
   -0.6776    0.6646    0.0000 C   0  0  0  0  0  0  0  0  0  0  0  0
   -2.0877    1.1760    0.0000 F   0  0  0  0  0  0  0  0  0  0  0  0
   -2.9737   -1.2663    0.0000 N   0  0  0  0  0  0  0  0  0  0  0  0
   -3.2358    0.2106    0.0000 C   0  0  0  0  0  0  0  0  0  0  0  0
   -4.6459    0.7221    0.0000 C   0  0  0  0  0  0  0  0  0  0  0  0
   -5.7939   -0.2433    0.0000 N   0  0  0  0  0  0  0  0  0  0  0  0
   -7.2040    0.2682    0.0000 C   0  0  0  0  0  0  0  0  0  0  0  0
   -7.4660    1.7451    0.0000 C   0  0  0  0  0  0  0  0  0  0  0  0
   -8.8761    2.2566    0.0000 C   0  0  0  0  0  0  0  0  0  0  0  0
  -10.0242    1.2911    0.0000 C   0  0  0  0  0  0  0  0  0  0  0  0
   -9.7621   -0.1858    0.0000 C   0  0  0  0  0  0  0  0  0  0  0  0
   -8.3520   -0.6973    0.0000 C   0  0  0  0  0  0  0  0  0  0  0  0
   -5.5318   -1.7203    0.0000 C   0  0  0  0  0  0  0  0  0  0  0  0
   -4.1217   -2.2318    0.0000 C   0  0  0  0  0  0  0  0  0  0  0  0
  1  2  2  0
  2  3  1  0
  3  4  2  0
  4  5  1  0
  5  6  1  0
  6  7  1  0
  7  8  2  0
  8  9  1  0
  9 10  1  0
 10 11  2  0
 10 12  1  0
 12 13  2  0
 13 14  1  0
 14 15  1  0
 15 16  1  0
 16 17  1  0
  5 18  2  0
 18 19  1  0
 19 20  2  0
 20 21  1  0
  2 22  1  0
 22 23  1  0
 23 24  1  0
 24 25  1  0
 25 26  1  0
 26 27  2  0
 27 28  1  0
 28 29  2  0
 29 30  1  0
 30 31  2  0
 25 32  1  0
 32 33  1  0
 20  3  1  0
 33 22  1  0
 13  7  1  0
 31 26  1  0
 17 12  1  0
M  END
$$$$

     RDKit          2D

 20 22  0  0  0  0  0  0  0  0999 V2000
   -4.0923    2.3162    0.0000 N   0  0  0  0  0  0  0  0  0  0  0  0
   -3.6863    0.8722    0.0000 C   0  0  0  0  0  0  0  0  0  0  0  0
   -2.2327    0.5018    0.0000 C   0  0  0  0  0  0  0  0  0  0  0  0
   -1.8267   -0.9422    0.0000 C   0  0  0  0  0  0  0  0  0  0  0  0
   -0.3731   -1.3125    0.0000 C   0  0  0  0  0  0  0  0  0  0  0  0
    0.6744   -0.2389    0.0000 C   0  0  0  0  0  0  0  0  0  0  0  0
    0.2683    1.2051    0.0000 N   0  0  0  0  0  0  0  0  0  0  0  0
    1.3159    2.2788    0.0000 N   0  0  0  0  0  0  0  0  0  0  0  0
    2.7694    1.9085    0.0000 C   0  0  0  0  0  0  0  0  0  0  0  0
    3.8169    2.9821    0.0000 O   0  0  0  0  0  0  0  0  0  0  0  0
    3.1755    0.4645    0.0000 C   0  0  0  0  0  0  0  0  0  0  0  0
    2.1280   -0.6092    0.0000 C   0  0  0  0  0  0  0  0  0  0  0  0
    2.5340   -2.0532    0.0000 N   0  0  0  0  0  0  0  0  0  0  0  0
    3.9876   -2.4235    0.0000 C   0  0  0  0  0  0  0  0  0  0  0  0
    5.0351   -1.3499    0.0000 C   0  0  0  0  0  0  0  0  0  0  0  0
    4.6290    0.0941    0.0000 C   0  0  0  0  0  0  0  0  0  0  0  0
   -2.8742   -2.0158    0.0000 C   0  0  0  0  0  0  0  0  0  0  0  0
   -4.3277   -1.6455    0.0000 C   0  0  0  0  0  0  0  0  0  0  0  0
   -4.7338   -0.2015    0.0000 C   0  0  0  0  0  0  0  0  0  0  0  0
   -6.1874    0.1689    0.0000 F   0  0  0  0  0  0  0  0  0  0  0  0
  1  2  1  0
  2  3  2  0
  3  4  1  0
  4  5  1  0
  5  6  1  0
  6  7  2  0
  7  8  1  0
  8  9  1  0
  9 10  2  0
  9 11  1  0
 11 12  2  0
 12 13  1  0
 13 14  1  0
 14 15  1  0
 15 16  1  0
  4 17  2  0
 17 18  1  0
 18 19  2  0
 19 20  1  0
 19  2  1  0
 12  6  1  0
 16 11  1  0
M  END
$$$$

     RDKit          2D

 20 22  0  0  0  0  0  0  0  0999 V2000
    3.8169   -2.9821    0.0000 O   0  0  0  0  0  0  0  0  0  0  0  0
    2.7694   -1.9085    0.0000 C   0  0  0  0  0  0  0  0  0  0  0  0
    1.3159   -2.2788    0.0000 N   0  0  0  0  0  0  0  0  0  0  0  0
    0.2683   -1.2051    0.0000 N   0  0  0  0  0  0  0  0  0  0  0  0
    0.6744    0.2389    0.0000 C   0  0  0  0  0  0  0  0  0  0  0  0
   -0.3731    1.3125    0.0000 C   0  0  0  0  0  0  0  0  0  0  0  0
   -1.8267    0.9422    0.0000 C   0  0  0  0  0  0  0  0  0  0  0  0
   -2.8742    2.0158    0.0000 C   0  0  0  0  0  0  0  0  0  0  0  0
   -4.3277    1.6455    0.0000 C   0  0  0  0  0  0  0  0  0  0  0  0
   -4.7338    0.2015    0.0000 C   0  0  0  0  0  0  0  0  0  0  0  0
   -6.1874   -0.1689    0.0000 Cl  0  0  0  0  0  0  0  0  0  0  0  0
   -3.6863   -0.8722    0.0000 C   0  0  0  0  0  0  0  0  0  0  0  0
   -4.0923   -2.3162    0.0000 Br  0  0  0  0  0  0  0  0  0  0  0  0
   -2.2327   -0.5018    0.0000 C   0  0  0  0  0  0  0  0  0  0  0  0
    2.1280    0.6092    0.0000 C   0  0  0  0  0  0  0  0  0  0  0  0
    3.1755   -0.4645    0.0000 C   0  0  0  0  0  0  0  0  0  0  0  0
    4.6290   -0.0941    0.0000 C   0  0  0  0  0  0  0  0  0  0  0  0
    5.0351    1.3499    0.0000 C   0  0  0  0  0  0  0  0  0  0  0  0
    3.9876    2.4235    0.0000 C   0  0  0  0  0  0  0  0  0  0  0  0
    2.5340    2.0532    0.0000 C   0  0  0  0  0  0  0  0  0  0  0  0
  1  2  2  0
  2  3  1  0
  3  4  1  0
  4  5  2  0
  5  6  1  0
  6  7  1  0
  7  8  2  0
  8  9  1  0
  9 10  2  0
 10 11  1  0
 10 12  1  0
 12 13  1  0
 12 14  2  0
  5 15  1  0
 15 16  2  0
 16 17  1  0
 17 18  1  0
 18 19  1  0
 19 20  1  0
 16  2  1  0
 14  7  1  0
 20 15  1  0
M  END
$$$$

     RDKit          2D

 20 22  0  0  0  0  0  0  0  0999 V2000
   -6.9836   -0.6654    0.0000 C   0  0  0  0  0  0  0  0  0  0  0  0
   -5.6260   -1.3033    0.0000 O   0  0  0  0  0  0  0  0  0  0  0  0
   -4.3947   -0.4466    0.0000 C   0  0  0  0  0  0  0  0  0  0  0  0
   -4.5210    1.0480    0.0000 C   0  0  0  0  0  0  0  0  0  0  0  0
   -3.2898    1.9048    0.0000 C   0  0  0  0  0  0  0  0  0  0  0  0
   -1.9322    1.2668    0.0000 C   0  0  0  0  0  0  0  0  0  0  0  0
   -1.8059   -0.2279    0.0000 C   0  0  0  0  0  0  0  0  0  0  0  0
   -0.4483   -0.8658    0.0000 C   0  0  0  0  0  0  0  0  0  0  0  0
    0.7830   -0.0091    0.0000 C   0  0  0  0  0  0  0  0  0  0  0  0
    0.6567    1.4856    0.0000 N   0  0  0  0  0  0  0  0  0  0  0  0
    1.8879    2.3423    0.0000 N   0  0  0  0  0  0  0  0  0  0  0  0
    3.2455    1.7043    0.0000 C   0  0  0  0  0  0  0  0  0  0  0  0
    4.4768    2.5610    0.0000 O   0  0  0  0  0  0  0  0  0  0  0  0
    3.3718    0.2097    0.0000 C   0  0  0  0  0  0  0  0  0  0  0  0
    2.1405   -0.6471    0.0000 C   0  0  0  0  0  0  0  0  0  0  0  0
    2.2668   -2.1417    0.0000 C   0  0  0  0  0  0  0  0  0  0  0  0
    3.6244   -2.7797    0.0000 C   0  0  0  0  0  0  0  0  0  0  0  0
    4.8557   -1.9230    0.0000 C   0  0  0  0  0  0  0  0  0  0  0  0
    4.7294   -0.4283    0.0000 C   0  0  0  0  0  0  0  0  0  0  0  0
   -3.0372   -1.0846    0.0000 C   0  0  0  0  0  0  0  0  0  0  0  0
  1  2  1  0
  2  3  1  0
  3  4  2  0
  4  5  1  0
  5  6  2  0
  6  7  1  0
  7  8  1  0
  8  9  1  0
  9 10  2  0
 10 11  1  0
 11 12  1  0
 12 13  2  0
 12 14  1  0
 14 15  2  0
 15 16  1  0
 16 17  1  0
 17 18  1  0
 18 19  1  0
  7 20  2  0
 20  3  1  0
 15  9  1  0
 19 14  1  0
M  END
$$$$

     RDKit          2D

 32 35  0  0  0  0  0  0  0  0999 V2000
   -5.3053    3.2006    0.0000 C   0  0  0  0  0  0  0  0  0  0  0  0
   -5.4127    1.7045    0.0000 C   0  0  0  0  0  0  0  0  0  0  0  0
   -6.7622    1.0494    0.0000 C   0  0  0  0  0  0  0  0  0  0  0  0
   -4.1708    0.8634    0.0000 N   0  0  0  0  0  0  0  0  0  0  0  0
   -4.2782   -0.6328    0.0000 C   0  0  0  0  0  0  0  0  0  0  0  0
   -5.6276   -1.2878    0.0000 O   0  0  0  0  0  0  0  0  0  0  0  0
   -3.0362   -1.4739    0.0000 N   0  0  0  0  0  0  0  0  0  0  0  0
   -1.6868   -0.8188    0.0000 C   0  0  0  0  0  0  0  0  0  0  0  0
   -0.4448   -1.6599    0.0000 C   0  0  0  0  0  0  0  0  0  0  0  0
   -0.5522   -3.1561    0.0000 N   0  0  0  0  0  0  0  0  0  0  0  0
    0.6898   -3.9972    0.0000 C   0  0  0  0  0  0  0  0  0  0  0  0
    0.5824   -5.4933    0.0000 O   0  0  0  0  0  0  0  0  0  0  0  0
    2.0392   -3.3421    0.0000 C   0  0  0  0  0  0  0  0  0  0  0  0
    3.2812   -4.1832    0.0000 C   0  0  0  0  0  0  0  0  0  0  0  0
    4.6306   -3.5282    0.0000 C   0  0  0  0  0  0  0  0  0  0  0  0
    4.7380   -2.0320    0.0000 C   0  0  0  0  0  0  0  0  0  0  0  0
    3.4960   -1.1909    0.0000 C   0  0  0  0  0  0  0  0  0  0  0  0
    3.6035    0.3052    0.0000 C   0  0  0  0  0  0  0  0  0  0  0  0
    2.3615    1.1463    0.0000 C   0  0  0  0  0  0  0  0  0  0  0  0
    1.0121    0.4913    0.0000 N   0  0  0  0  0  0  0  0  0  0  0  0
   -0.2299    1.3324    0.0000 N   0  0  0  0  0  0  0  0  0  0  0  0
   -0.1225    2.8285    0.0000 C   0  0  0  0  0  0  0  0  0  0  0  0
   -1.3645    3.6696    0.0000 O   0  0  0  0  0  0  0  0  0  0  0  0
    1.2269    3.4836    0.0000 C   0  0  0  0  0  0  0  0  0  0  0  0
    2.4689    2.6425    0.0000 C   0  0  0  0  0  0  0  0  0  0  0  0
    3.8183    3.2975    0.0000 C   0  0  0  0  0  0  0  0  0  0  0  0
    3.9257    4.7937    0.0000 C   0  0  0  0  0  0  0  0  0  0  0  0
    2.6837    5.6348    0.0000 C   0  0  0  0  0  0  0  0  0  0  0  0
    1.3343    4.9797    0.0000 C   0  0  0  0  0  0  0  0  0  0  0  0
    2.1466   -1.8460    0.0000 C   0  0  0  0  0  0  0  0  0  0  0  0
   -1.9016   -3.8111    0.0000 C   0  0  0  0  0  0  0  0  0  0  0  0
   -3.1436   -2.9700    0.0000 C   0  0  0  0  0  0  0  0  0  0  0  0
  1  2  1  0
  2  3  1  0
  2  4  1  0
  4  5  1  0
  5  6  2  0
  5  7  1  0
  7  8  1  0
  8  9  1  0
  9 10  1  0
 10 11  1  0
 11 12  2  0
 11 13  1  0
 13 14  2  0
 14 15  1  0
 15 16  2  0
 16 17  1  0
 17 18  1  0
 18 19  1  0
 19 20  2  0
 20 21  1  0
 21 22  1  0
 22 23  2  0
 22 24  1  0
 24 25  2  0
 25 26  1  0
 26 27  1  0
 27 28  1  0
 28 29  1  0
 17 30  2  0
 10 31  1  0
 31 32  1  0
 32  7  1  0
 30 13  1  0
 25 19  1  0
 29 24  1  0
M  END
$$$$

     RDKit          2D

 26 28  0  0  0  0  0  0  0  0999 V2000
   -8.3016    1.6359    0.0000 C   0  0  0  0  0  0  0  0  0  0  0  0
   -7.4877    0.3759    0.0000 C   0  0  0  0  0  0  0  0  0  0  0  0
   -5.9896    0.4508    0.0000 N   0  0  0  0  0  0  0  0  0  0  0  0
   -5.3054    1.7857    0.0000 C   0  0  0  0  0  0  0  0  0  0  0  0
   -6.1193    3.0457    0.0000 C   0  0  0  0  0  0  0  0  0  0  0  0
   -5.1756   -0.8091    0.0000 C   0  0  0  0  0  0  0  0  0  0  0  0
   -5.8598   -2.1440    0.0000 O   0  0  0  0  0  0  0  0  0  0  0  0
   -3.6775   -0.7342    0.0000 C   0  0  0  0  0  0  0  0  0  0  0  0
   -2.9933    0.6007    0.0000 O   0  0  0  0  0  0  0  0  0  0  0  0
   -2.8635   -1.9942    0.0000 N   0  0  0  0  0  0  0  0  0  0  0  0
   -1.3654   -1.9192    0.0000 C   0  0  0  0  0  0  0  0  0  0  0  0
   -0.3590   -0.8069    0.0000 C   0  0  0  0  0  0  0  0  0  0  0  0
    0.7533   -1.8133    0.0000 C   0  0  0  0  0  0  0  0  0  0  0  0
    2.2514   -1.7383    0.0000 C   0  0  0  0  0  0  0  0  0  0  0  0
    2.9356   -0.4035    0.0000 C   0  0  0  0  0  0  0  0  0  0  0  0
    2.1216    0.8565    0.0000 N   0  0  0  0  0  0  0  0  0  0  0  0
    2.8058    2.1914    0.0000 N   0  0  0  0  0  0  0  0  0  0  0  0
    4.3039    2.2663    0.0000 C   0  0  0  0  0  0  0  0  0  0  0  0
    4.9881    3.6012    0.0000 O   0  0  0  0  0  0  0  0  0  0  0  0
    5.1179    1.0063    0.0000 C   0  0  0  0  0  0  0  0  0  0  0  0
    4.4337   -0.3285    0.0000 C   0  0  0  0  0  0  0  0  0  0  0  0
    5.2477   -1.5885    0.0000 C   0  0  0  0  0  0  0  0  0  0  0  0
    6.7458   -1.5136    0.0000 C   0  0  0  0  0  0  0  0  0  0  0  0
    7.4300   -0.1787    0.0000 C   0  0  0  0  0  0  0  0  0  0  0  0
    6.6160    1.0813    0.0000 C   0  0  0  0  0  0  0  0  0  0  0  0
   -0.2531   -2.9256    0.0000 C   0  0  0  0  0  0  0  0  0  0  0  0
  1  2  1  0
  2  3  1  0
  3  4  1  0
  4  5  1  0
  3  6  1  0
  6  7  2  0
  6  8  1  0
  8  9  2  0
  8 10  1  0
 10 11  1  0
 11 12  2  0
 12 13  1  0
 13 14  1  0
 14 15  1  0
 15 16  2  0
 16 17  1  0
 17 18  1  0
 18 19  2  0
 18 20  1  0
 20 21  2  0
 21 22  1  0
 22 23  1  0
 23 24  1  0
 24 25  1  0
 13 26  2  0
 26 11  1  0
 21 15  1  0
 25 20  1  0
M  END
$$$$

     RDKit          2D

 34 37  0  0  0  0  0  0  0  0999 V2000
   -8.1046    2.5381    0.0000 C   0  0  0  0  0  0  0  0  0  0  0  0
   -6.6752    2.0834    0.0000 C   0  0  0  0  0  0  0  0  0  0  0  0
   -5.5667    3.0939    0.0000 C   0  0  0  0  0  0  0  0  0  0  0  0
   -4.1373    2.6392    0.0000 C   0  0  0  0  0  0  0  0  0  0  0  0
   -3.8164    1.1739    0.0000 C   0  0  0  0  0  0  0  0  0  0  0  0
   -2.3869    0.7192    0.0000 C   0  0  0  0  0  0  0  0  0  0  0  0
   -2.0660   -0.7460    0.0000 C   0  0  0  0  0  0  0  0  0  0  0  0
   -0.6366   -1.2008    0.0000 N   0  0  0  0  0  0  0  0  0  0  0  0
   -0.3157   -2.6660    0.0000 C   0  0  0  0  0  0  0  0  0  0  0  0
   -1.4242   -3.6766    0.0000 O   0  0  0  0  0  0  0  0  0  0  0  0
    1.1137   -3.1208    0.0000 C   0  0  0  0  0  0  0  0  0  0  0  0
    1.4346   -4.5860    0.0000 C   0  0  0  0  0  0  0  0  0  0  0  0
    2.8640   -5.0407    0.0000 C   0  0  0  0  0  0  0  0  0  0  0  0
    3.9726   -4.0302    0.0000 C   0  0  0  0  0  0  0  0  0  0  0  0
    3.6516   -2.5649    0.0000 C   0  0  0  0  0  0  0  0  0  0  0  0
    4.7601   -1.5544    0.0000 C   0  0  0  0  0  0  0  0  0  0  0  0
    4.4392   -0.0891    0.0000 C   0  0  0  0  0  0  0  0  0  0  0  0
    3.0098    0.3656    0.0000 N   0  0  0  0  0  0  0  0  0  0  0  0
    2.6889    1.8309    0.0000 N   0  0  0  0  0  0  0  0  0  0  0  0
    3.7974    2.8414    0.0000 C   0  0  0  0  0  0  0  0  0  0  0  0
    3.4765    4.3067    0.0000 O   0  0  0  0  0  0  0  0  0  0  0  0
    5.2268    2.3867    0.0000 C   0  0  0  0  0  0  0  0  0  0  0  0
    5.5477    0.9215    0.0000 C   0  0  0  0  0  0  0  0  0  0  0  0
    6.9772    0.4667    0.0000 C   0  0  0  0  0  0  0  0  0  0  0  0
    8.0857    1.4773    0.0000 C   0  0  0  0  0  0  0  0  0  0  0  0
    7.7648    2.9426    0.0000 C   0  0  0  0  0  0  0  0  0  0  0  0
    6.3353    3.3973    0.0000 C   0  0  0  0  0  0  0  0  0  0  0  0
    2.2222   -2.1102    0.0000 C   0  0  0  0  0  0  0  0  0  0  0  0
   -4.9249    0.1634    0.0000 N   0  0  0  0  0  0  0  0  0  0  0  0
   -6.3543    0.6181    0.0000 C   0  0  0  0  0  0  0  0  0  0  0  0
   -7.4628   -0.3924    0.0000 C   0  0  0  0  0  0  0  0  0  0  0  0
   -8.5713   -1.4030    0.0000 F   0  0  0  0  0  0  0  0  0  0  0  0
   -6.4522   -1.5009    0.0000 F   0  0  0  0  0  0  0  0  0  0  0  0
   -8.4733    0.7161    0.0000 F   0  0  0  0  0  0  0  0  0  0  0  0
  1  2  1  0
  2  3  2  0
  3  4  1  0
  4  5  2  0
  5  6  1  0
  6  7  1  0
  7  8  1  0
  8  9  1  0
  9 10  2  0
  9 11  1  0
 11 12  2  0
 12 13  1  0
 13 14  2  0
 14 15  1  0
 15 16  1  0
 16 17  1  0
 17 18  2  0
 18 19  1  0
 19 20  1  0
 20 21  2  0
 20 22  1  0
 22 23  2  0
 23 24  1  0
 24 25  1  0
 25 26  1  0
 26 27  1  0
 15 28  2  0
  5 29  1  0
 29 30  2  0
 30 31  1  0
 31 32  1  0
 31 33  1  0
 31 34  1  0
 30  2  1  0
 28 11  1  0
 23 17  1  0
 27 22  1  0
M  END
$$$$

     RDKit          2D

 31 35  0  0  0  0  0  0  0  0999 V2000
   -2.6321   -2.0799    0.0000 O   0  0  0  0  0  0  0  0  0  0  0  0
   -2.5874   -0.5806    0.0000 C   0  0  0  0  0  0  0  0  0  0  0  0
   -1.2666    0.1304    0.0000 C   0  0  0  0  0  0  0  0  0  0  0  0
    0.0095   -0.6580    0.0000 C   0  0  0  0  0  0  0  0  0  0  0  0
    1.3304    0.0529    0.0000 C   0  0  0  0  0  0  0  0  0  0  0  0
    2.6065   -0.7355    0.0000 C   0  0  0  0  0  0  0  0  0  0  0  0
    3.9273   -0.0246    0.0000 C   0  0  0  0  0  0  0  0  0  0  0  0
    3.9720    1.4747    0.0000 N   0  0  0  0  0  0  0  0  0  0  0  0
    5.2929    2.1856    0.0000 N   0  0  0  0  0  0  0  0  0  0  0  0
    6.5689    1.3972    0.0000 C   0  0  0  0  0  0  0  0  0  0  0  0
    7.8898    2.1081    0.0000 O   0  0  0  0  0  0  0  0  0  0  0  0
    6.5242   -0.1021    0.0000 C   0  0  0  0  0  0  0  0  0  0  0  0
    5.2034   -0.8130    0.0000 C   0  0  0  0  0  0  0  0  0  0  0  0
    5.1586   -2.3124    0.0000 C   0  0  0  0  0  0  0  0  0  0  0  0
    6.4347   -3.1008    0.0000 C   0  0  0  0  0  0  0  0  0  0  0  0
    7.7556   -2.3899    0.0000 C   0  0  0  0  0  0  0  0  0  0  0  0
    7.8003   -0.8905    0.0000 C   0  0  0  0  0  0  0  0  0  0  0  0
    1.3751    1.5522    0.0000 C   0  0  0  0  0  0  0  0  0  0  0  0
    0.0990    2.3406    0.0000 C   0  0  0  0  0  0  0  0  0  0  0  0
   -1.2218    1.6297    0.0000 C   0  0  0  0  0  0  0  0  0  0  0  0
   -2.4979    2.4181    0.0000 F   0  0  0  0  0  0  0  0  0  0  0  0
   -3.8635    0.2079    0.0000 N   0  0  0  0  0  0  0  0  0  0  0  0
   -3.9757    1.7037    0.0000 C   0  0  0  0  0  0  0  0  0  0  0  0
   -5.4330    2.0591    0.0000 C   0  0  0  0  0  0  0  0  0  0  0  0
   -6.2214    0.7831    0.0000 N   0  0  0  0  0  0  0  0  0  0  0  0
   -7.7207    0.7380    0.0000 C   0  0  0  0  0  0  0  0  0  0  0  0
   -8.6203   -0.4622    0.0000 C   0  0  0  0  0  0  0  0  0  0  0  0
   -8.2428   -1.9140    0.0000 C   0  0  0  0  0  0  0  0  0  0  0  0
   -6.8725   -2.5239    0.0000 C   0  0  0  0  0  0  0  0  0  0  0  0
   -5.5411   -1.8329    0.0000 C   0  0  0  0  0  0  0  0  0  0  0  0
   -5.2514   -0.3611    0.0000 C   0  0  0  0  0  0  0  0  0  0  0  0
  1  2  2  0
  2  3  1  0
  3  4  2  0
  4  5  1  0
  5  6  1  0
  6  7  1  0
  7  8  2  0
  8  9  1  0
  9 10  1  0
 10 11  2  0
 10 12  1  0
 12 13  2  0
 13 14  1  0
 14 15  1  0
 15 16  1  0
 16 17  1  0
  5 18  2  0
 18 19  1  0
 19 20  2  0
 20 21  1  0
  2 22  1  0
 22 23  1  0
 23 24  1  0
 24 25  1  0
 25 26  1  0
 26 27  1  0
 27 28  1  0
 28 29  1  0
 29 30  1  0
 30 31  1  0
 20  3  1  0
 31 22  1  0
 13  7  1  0
 31 25  1  0
 17 12  1  0
M  END
$$$$

     RDKit          2D

 26 29  0  0  0  0  0  0  0  0999 V2000
   -4.7162    3.4310    0.0000 N   0  0  0  0  0  0  0  0  0  0  0  0
   -4.1342    2.0485    0.0000 C   0  0  0  0  0  0  0  0  0  0  0  0
   -5.0405    0.8532    0.0000 O   0  0  0  0  0  0  0  0  0  0  0  0
   -2.6459    1.8612    0.0000 C   0  0  0  0  0  0  0  0  0  0  0  0
   -1.9034    3.1645    0.0000 C   0  0  0  0  0  0  0  0  0  0  0  0
   -0.4568    3.5611    0.0000 C   0  0  0  0  0  0  0  0  0  0  0  0
    0.8466    2.8186    0.0000 C   0  0  0  0  0  0  0  0  0  0  0  0
    1.2431    1.3719    0.0000 C   0  0  0  0  0  0  0  0  0  0  0  0
    2.7314    1.1847    0.0000 C   0  0  0  0  0  0  0  0  0  0  0  0
    3.7576    2.2787    0.0000 N   0  0  0  0  0  0  0  0  0  0  0  0
    5.1152    1.6407    0.0000 N   0  0  0  0  0  0  0  0  0  0  0  0
    4.9280    0.1524    0.0000 C   0  0  0  0  0  0  0  0  0  0  0  0
    3.4547   -0.1294    0.0000 C   0  0  0  0  0  0  0  0  0  0  0  0
    2.9621   -1.5462    0.0000 N   0  0  0  0  0  0  0  0  0  0  0  0
    3.9428   -2.6812    0.0000 C   0  0  0  0  0  0  0  0  0  0  0  0
    5.4161   -2.3994    0.0000 C   0  0  0  0  0  0  0  0  0  0  0  0
    5.9087   -0.9826    0.0000 C   0  0  0  0  0  0  0  0  0  0  0  0
    0.5006    0.0686    0.0000 C   0  0  0  0  0  0  0  0  0  0  0  0
   -0.9461   -0.3279    0.0000 C   0  0  0  0  0  0  0  0  0  0  0  0
   -2.2494    0.4146    0.0000 C   0  0  0  0  0  0  0  0  0  0  0  0
   -3.4342   -0.5054    0.0000 O   0  0  0  0  0  0  0  0  0  0  0  0
   -3.2298   -1.9914    0.0000 N   0  0  0  0  0  0  0  0  0  0  0  0
   -1.9075   -2.6996    0.0000 C   0  0  0  0  0  0  0  0  0  0  0  0
   -2.1724   -4.1760    0.0000 C   0  0  0  0  0  0  0  0  0  0  0  0
   -3.6584   -4.3803    0.0000 N   0  0  0  0  0  0  0  0  0  0  0  0
   -4.3119   -3.0302    0.0000 C   0  0  0  0  0  0  0  0  0  0  0  0
  1  2  1  0
  2  3  2  0
  2  4  1  0
  4  5  2  0
  5  6  1  0
  6  7  2  0
  7  8  1  0
  8  9  1  0
  9 10  2  0
 10 11  1  0
 11 12  1  0
 12 13  2  0
 13 14  1  0
 14 15  1  0
 15 16  1  0
 16 17  1  0
  8 18  2  0
 18 19  1  0
 19 20  2  0
 20 21  1  0
 21 22  1  0
 22 23  1  0
 23 24  1  0
 24 25  1  0
 25 26  1  0
 20  4  1  0
 26 22  1  0
 13  9  1  0
 17 12  1  0
M  END
$$$$

     RDKit          2D

 26 29  0  0  0  0  0  0  0  0999 V2000
   -7.4045   -2.0154    0.0000 C   0  0  0  0  0  0  0  0  0  0  0  0
   -6.6992   -0.6916    0.0000 C   0  0  0  0  0  0  0  0  0  0  0  0
   -7.1367    0.7432    0.0000 C   0  0  0  0  0  0  0  0  0  0  0  0
   -5.7019    1.1807    0.0000 C   0  0  0  0  0  0  0  0  0  0  0  0
   -5.2644   -0.2541    0.0000 N   0  0  0  0  0  0  0  0  0  0  0  0
   -3.9406   -0.9594    0.0000 C   0  0  0  0  0  0  0  0  0  0  0  0
   -3.8894   -2.4585    0.0000 O   0  0  0  0  0  0  0  0  0  0  0  0
   -2.6679   -0.1655    0.0000 C   0  0  0  0  0  0  0  0  0  0  0  0
   -1.3440   -0.8707    0.0000 C   0  0  0  0  0  0  0  0  0  0  0  0
   -0.0713   -0.0769    0.0000 C   0  0  0  0  0  0  0  0  0  0  0  0
    1.2526   -0.7821    0.0000 C   0  0  0  0  0  0  0  0  0  0  0  0
    2.5253    0.0118    0.0000 C   0  0  0  0  0  0  0  0  0  0  0  0
    2.4741    1.5109    0.0000 N   0  0  0  0  0  0  0  0  0  0  0  0
    3.7468    2.3048    0.0000 N   0  0  0  0  0  0  0  0  0  0  0  0
    5.0706    1.5995    0.0000 C   0  0  0  0  0  0  0  0  0  0  0  0
    6.3433    2.3934    0.0000 O   0  0  0  0  0  0  0  0  0  0  0  0
    5.1218    0.1004    0.0000 C   0  0  0  0  0  0  0  0  0  0  0  0
    3.8491   -0.6935    0.0000 C   0  0  0  0  0  0  0  0  0  0  0  0
    3.9003   -2.1926    0.0000 N   0  0  0  0  0  0  0  0  0  0  0  0
    5.2242   -2.8979    0.0000 C   0  0  0  0  0  0  0  0  0  0  0  0
    6.4969   -2.1040    0.0000 C   0  0  0  0  0  0  0  0  0  0  0  0
    6.4457   -0.6048    0.0000 C   0  0  0  0  0  0  0  0  0  0  0  0
   -0.1225    1.4223    0.0000 C   0  0  0  0  0  0  0  0  0  0  0  0
   -1.4463    2.1275    0.0000 C   0  0  0  0  0  0  0  0  0  0  0  0
   -2.7190    1.3336    0.0000 C   0  0  0  0  0  0  0  0  0  0  0  0
   -4.0429    2.0389    0.0000 F   0  0  0  0  0  0  0  0  0  0  0  0
  1  2  1  0
  2  3  1  0
  3  4  1  0
  4  5  1  0
  5  6  1  0
  6  7  2  0
  6  8  1  0
  8  9  2  0
  9 10  1  0
 10 11  1  0
 11 12  1  0
 12 13  2  0
 13 14  1  0
 14 15  1  0
 15 16  2  0
 15 17  1  0
 17 18  2  0
 18 19  1  0
 19 20  1  0
 20 21  1  0
 21 22  1  0
 10 23  2  0
 23 24  1  0
 24 25  2  0
 25 26  1  0
  5  2  1  0
 25  8  1  0
 18 12  1  0
 22 17  1  0
M  END
$$$$

     RDKit          2D

 34 38  0  0  0  0  0  0  0  0999 V2000
   -8.1938   -1.5688    0.0000 O   0  0  0  0  0  0  0  0  0  0  0  0
   -7.1165   -0.5250    0.0000 C   0  0  0  0  0  0  0  0  0  0  0  0
   -7.4819    0.9299    0.0000 C   0  0  0  0  0  0  0  0  0  0  0  0
   -8.8736    1.4894    0.0000 C   0  0  0  0  0  0  0  0  0  0  0  0
   -8.7715    2.9860    0.0000 C   0  0  0  0  0  0  0  0  0  0  0  0
   -7.3166    3.3513    0.0000 S   0  0  0  0  0  0  0  0  0  0  0  0
   -6.5196    2.0806    0.0000 C   0  0  0  0  0  0  0  0  0  0  0  0
   -5.6739   -0.9360    0.0000 N   0  0  0  0  0  0  0  0  0  0  0  0
   -5.3086   -2.3908    0.0000 C   0  0  0  0  0  0  0  0  0  0  0  0
   -3.8660   -2.8018    0.0000 C   0  0  0  0  0  0  0  0  0  0  0  0
   -2.7888   -1.7580    0.0000 N   0  0  0  0  0  0  0  0  0  0  0  0
   -1.3462   -2.1691    0.0000 C   0  0  0  0  0  0  0  0  0  0  0  0
   -0.9809   -3.6239    0.0000 O   0  0  0  0  0  0  0  0  0  0  0  0
   -0.2689   -1.1253    0.0000 C   0  0  0  0  0  0  0  0  0  0  0  0
    1.1737   -1.5363    0.0000 C   0  0  0  0  0  0  0  0  0  0  0  0
    2.2509   -0.4925    0.0000 C   0  0  0  0  0  0  0  0  0  0  0  0
    3.6935   -0.9035    0.0000 C   0  0  0  0  0  0  0  0  0  0  0  0
    4.7707    0.1403    0.0000 C   0  0  0  0  0  0  0  0  0  0  0  0
    4.4054    1.5951    0.0000 N   0  0  0  0  0  0  0  0  0  0  0  0
    5.4827    2.6389    0.0000 N   0  0  0  0  0  0  0  0  0  0  0  0
    6.9253    2.2279    0.0000 C   0  0  0  0  0  0  0  0  0  0  0  0
    8.0025    3.2717    0.0000 O   0  0  0  0  0  0  0  0  0  0  0  0
    7.2906    0.7731    0.0000 C   0  0  0  0  0  0  0  0  0  0  0  0
    6.2133   -0.2707    0.0000 C   0  0  0  0  0  0  0  0  0  0  0  0
    6.5787   -1.7256    0.0000 N   0  0  0  0  0  0  0  0  0  0  0  0
    8.0213   -2.1366    0.0000 C   0  0  0  0  0  0  0  0  0  0  0  0
    9.0985   -1.0928    0.0000 C   0  0  0  0  0  0  0  0  0  0  0  0
    8.7332    0.3620    0.0000 C   0  0  0  0  0  0  0  0  0  0  0  0
    1.8856    0.9623    0.0000 C   0  0  0  0  0  0  0  0  0  0  0  0
    0.4430    1.3734    0.0000 C   0  0  0  0  0  0  0  0  0  0  0  0
   -0.6343    0.3296    0.0000 C   0  0  0  0  0  0  0  0  0  0  0  0
   -2.0769    0.7406    0.0000 F   0  0  0  0  0  0  0  0  0  0  0  0
   -3.1541   -0.3032    0.0000 C   0  0  0  0  0  0  0  0  0  0  0  0
   -4.5967    0.1078    0.0000 C   0  0  0  0  0  0  0  0  0  0  0  0
  1  2  2  0
  2  3  1  0
  3  4  1  0
  4  5  2  0
  5  6  1  0
  6  7  1  0
  2  8  1  0
  8  9  1  0
  9 10  1  0
 10 11  1  0
 11 12  1  0
 12 13  2  0
 12 14  1  0
 14 15  2  0
 15 16  1  0
 16 17  1  0
 17 18  1  0
 18 19  2  0
 19 20  1  0
 20 21  1  0
 21 22  2  0
 21 23  1  0
 23 24  2  0
 24 25  1  0
 25 26  1  0
 26 27  1  0
 27 28  1  0
 16 29  2  0
 29 30  1  0
 30 31  2  0
 31 32  1  0
 11 33  1  0
 33 34  1  0
  7  3  2  0
 34  8  1  0
 31 14  1  0
 24 18  1  0
 28 23  1  0
M  END
$$$$

     RDKit          2D

 28 31  0  0  0  0  0  0  0  0999 V2000
   -0.5593    5.0704    0.0000 C   0  0  0  0  0  0  0  0  0  0  0  0
   -2.0158    4.7116    0.0000 O   0  0  0  0  0  0  0  0  0  0  0  0
   -2.4333    3.2709    0.0000 C   0  0  0  0  0  0  0  0  0  0  0  0
   -1.3944    2.1889    0.0000 C   0  0  0  0  0  0  0  0  0  0  0  0
   -1.8119    0.7482    0.0000 C   0  0  0  0  0  0  0  0  0  0  0  0
   -3.2684    0.3895    0.0000 C   0  0  0  0  0  0  0  0  0  0  0  0
   -3.6859   -1.0513    0.0000 C   0  0  0  0  0  0  0  0  0  0  0  0
   -5.1424   -1.4100    0.0000 O   0  0  0  0  0  0  0  0  0  0  0  0
   -2.6470   -2.1332    0.0000 C   0  0  0  0  0  0  0  0  0  0  0  0
   -3.0645   -3.5739    0.0000 C   0  0  0  0  0  0  0  0  0  0  0  0
   -2.0256   -4.6559    0.0000 C   0  0  0  0  0  0  0  0  0  0  0  0
   -0.5691   -4.2971    0.0000 C   0  0  0  0  0  0  0  0  0  0  0  0
   -0.1516   -2.8564    0.0000 C   0  0  0  0  0  0  0  0  0  0  0  0
    1.3049   -2.4977    0.0000 C   0  0  0  0  0  0  0  0  0  0  0  0
    1.7224   -1.0569    0.0000 C   0  0  0  0  0  0  0  0  0  0  0  0
    0.6835    0.0250    0.0000 N   0  0  0  0  0  0  0  0  0  0  0  0
    1.1010    1.4657    0.0000 N   0  0  0  0  0  0  0  0  0  0  0  0
    2.5575    1.8245    0.0000 C   0  0  0  0  0  0  0  0  0  0  0  0
    2.9750    3.2652    0.0000 O   0  0  0  0  0  0  0  0  0  0  0  0
    3.5964    0.7425    0.0000 C   0  0  0  0  0  0  0  0  0  0  0  0
    3.1789   -0.6982    0.0000 C   0  0  0  0  0  0  0  0  0  0  0  0
    4.2178   -1.7801    0.0000 C   0  0  0  0  0  0  0  0  0  0  0  0
    5.6743   -1.4214    0.0000 C   0  0  0  0  0  0  0  0  0  0  0  0
    6.0918    0.0193    0.0000 C   0  0  0  0  0  0  0  0  0  0  0  0
    5.0529    1.1013    0.0000 C   0  0  0  0  0  0  0  0  0  0  0  0
   -1.1905   -1.7745    0.0000 C   0  0  0  0  0  0  0  0  0  0  0  0
   -4.3073    1.4714    0.0000 C   0  0  0  0  0  0  0  0  0  0  0  0
   -3.8898    2.9121    0.0000 C   0  0  0  0  0  0  0  0  0  0  0  0
  1  2  1  0
  2  3  1  0
  3  4  2  0
  4  5  1  0
  5  6  2  0
  6  7  1  0
  7  8  2  0
  7  9  1  0
  9 10  2  0
 10 11  1  0
 11 12  2  0
 12 13  1  0
 13 14  1  0
 14 15  1  0
 15 16  2  0
 16 17  1  0
 17 18  1  0
 18 19  2  0
 18 20  1  0
 20 21  2  0
 21 22  1  0
 22 23  1  0
 23 24  1  0
 24 25  1  0
 13 26  2  0
  6 27  1  0
 27 28  2  0
 28  3  1  0
 26  9  1  0
 21 15  1  0
 25 20  1  0
M  END
$$$$

     RDKit          2D

 18 20  0  0  0  0  0  0  0  0999 V2000
   -4.4358   -2.4954    0.0000 N   0  0  0  0  0  0  0  0  0  0  0  0
   -3.0468   -1.9292    0.0000 C   0  0  0  0  0  0  0  0  0  0  0  0
   -1.8619   -2.8491    0.0000 O   0  0  0  0  0  0  0  0  0  0  0  0
   -2.8426   -0.4432    0.0000 C   0  0  0  0  0  0  0  0  0  0  0  0
   -4.0274    0.4766    0.0000 C   0  0  0  0  0  0  0  0  0  0  0  0
   -3.8232    1.9627    0.0000 C   0  0  0  0  0  0  0  0  0  0  0  0
   -2.4342    2.5289    0.0000 C   0  0  0  0  0  0  0  0  0  0  0  0
   -1.2493    1.6090    0.0000 C   0  0  0  0  0  0  0  0  0  0  0  0
    0.2271    1.8740    0.0000 N   0  0  0  0  0  0  0  0  0  0  0  0
    0.9353    0.5518    0.0000 C   0  0  0  0  0  0  0  0  0  0  0  0
    2.4214    0.3476    0.0000 C   0  0  0  0  0  0  0  0  0  0  0  0
    3.4600    1.4298    0.0000 N   0  0  0  0  0  0  0  0  0  0  0  0
    4.8102    0.7764    0.0000 N   0  0  0  0  0  0  0  0  0  0  0  0
    4.6061   -0.7096    0.0000 C   0  0  0  0  0  0  0  0  0  0  0  0
    5.6883   -1.7483    0.0000 O   0  0  0  0  0  0  0  0  0  0  0  0
    3.1297   -0.9746    0.0000 C   0  0  0  0  0  0  0  0  0  0  0  0
   -0.1033   -0.5304    0.0000 N   0  0  0  0  0  0  0  0  0  0  0  0
   -1.4535    0.1230    0.0000 C   0  0  0  0  0  0  0  0  0  0  0  0
  1  2  1  0
  2  3  2  0
  2  4  1  0
  4  5  2  0
  5  6  1  0
  6  7  2  0
  7  8  1  0
  8  9  1  0
  9 10  1  0
 10 11  1  0
 11 12  2  0
 12 13  1  0
 13 14  1  0
 14 15  2  0
 14 16  1  0
 10 17  2  0
 17 18  1  0
 18  4  1  0
 18  8  2  0
 16 11  1  0
M  END
$$$$

     RDKit          2D

 29 31  0  0  0  0  0  0  0  0999 V2000
  -10.5611    0.1608    0.0000 C   0  0  0  0  0  0  0  0  0  0  0  0
   -9.1841   -0.4340    0.0000 C   0  0  0  0  0  0  0  0  0  0  0  0
   -9.0107   -1.9240    0.0000 C   0  0  0  0  0  0  0  0  0  0  0  0
   -7.9805    0.4611    0.0000 N   0  0  0  0  0  0  0  0  0  0  0  0
   -6.6034   -0.1337    0.0000 C   0  0  0  0  0  0  0  0  0  0  0  0
   -6.4300   -1.6237    0.0000 O   0  0  0  0  0  0  0  0  0  0  0  0
   -5.3998    0.7614    0.0000 N   0  0  0  0  0  0  0  0  0  0  0  0
   -4.0228    0.1666    0.0000 C   0  0  0  0  0  0  0  0  0  0  0  0
   -3.8494   -1.3233    0.0000 O   0  0  0  0  0  0  0  0  0  0  0  0
   -2.8191    1.0617    0.0000 O   0  0  0  0  0  0  0  0  0  0  0  0
   -1.4421    0.4669    0.0000 C   0  0  0  0  0  0  0  0  0  0  0  0
   -1.2687   -1.0230    0.0000 O   0  0  0  0  0  0  0  0  0  0  0  0
   -0.2385    1.3621    0.0000 N   0  0  0  0  0  0  0  0  0  0  0  0
   -0.0203    2.8461    0.0000 C   0  0  0  0  0  0  0  0  0  0  0  0
    1.4637    2.6280    0.0000 C   0  0  0  0  0  0  0  0  0  0  0  0
    1.2456    1.1439    0.0000 C   0  0  0  0  0  0  0  0  0  0  0  0
    1.0274   -0.3401    0.0000 C   0  0  0  0  0  0  0  0  0  0  0  0
    2.7296    0.9258    0.0000 C   0  0  0  0  0  0  0  0  0  0  0  0
    3.4255   -0.4031    0.0000 N   0  0  0  0  0  0  0  0  0  0  0  0
    4.9043   -0.1519    0.0000 C   0  0  0  0  0  0  0  0  0  0  0  0
    6.0804   -1.0829    0.0000 C   0  0  0  0  0  0  0  0  0  0  0  0
    5.8623   -2.5669    0.0000 C   0  0  0  0  0  0  0  0  0  0  0  0
    7.0385   -3.4979    0.0000 N   0  0  0  0  0  0  0  0  0  0  0  0
    4.4680   -3.1200    0.0000 O   0  0  0  0  0  0  0  0  0  0  0  0
    7.4747   -0.5298    0.0000 C   0  0  0  0  0  0  0  0  0  0  0  0
    7.6929    0.9543    0.0000 C   0  0  0  0  0  0  0  0  0  0  0  0
    6.5167    1.8852    0.0000 C   0  0  0  0  0  0  0  0  0  0  0  0
    5.1224    1.3321    0.0000 C   0  0  0  0  0  0  0  0  0  0  0  0
    3.7784    1.9982    0.0000 N   0  0  0  0  0  0  0  0  0  0  0  0
  1  2  1  0
  2  3  1  0
  2  4  1  0
  4  5  1  0
  5  6  2  0
  5  7  1  0
  7  8  1  0
  8  9  2  0
  8 10  1  0
 10 11  1  0
 11 12  2  0
 11 13  1  0
 13 14  1  0
 14 15  1  0
 15 16  1  0
 16 17  1  0
 16 18  1  0
 18 19  2  0
 19 20  1  0
 20 21  2  0
 21 22  1  0
 22 23  1  0
 22 24  2  0
 21 25  1  0
 25 26  2  0
 26 27  1  0
 27 28  2  0
 28 29  1  0
 16 13  1  0
 29 18  1  0
 28 20  1  0
M  END
$$$$

     RDKit          2D

 21 23  0  0  0  0  0  0  0  0999 V2000
   -6.0991    1.7971    0.0000 N   0  0  0  0  0  0  0  0  0  0  0  0
   -5.7185    0.3462    0.0000 C   0  0  0  0  0  0  0  0  0  0  0  0
   -6.7848   -0.7089    0.0000 O   0  0  0  0  0  0  0  0  0  0  0  0
   -4.2717   -0.0497    0.0000 C   0  0  0  0  0  0  0  0  0  0  0  0
   -3.2055    1.0053    0.0000 C   0  0  0  0  0  0  0  0  0  0  0  0
   -1.7586    0.6095    0.0000 C   0  0  0  0  0  0  0  0  0  0  0  0
   -1.3781   -0.8415    0.0000 C   0  0  0  0  0  0  0  0  0  0  0  0
    0.0687   -1.2373    0.0000 C   0  0  0  0  0  0  0  0  0  0  0  0
    1.1350   -0.1823    0.0000 C   0  0  0  0  0  0  0  0  0  0  0  0
    0.7544    1.2686    0.0000 N   0  0  0  0  0  0  0  0  0  0  0  0
    1.8207    2.3237    0.0000 N   0  0  0  0  0  0  0  0  0  0  0  0
    3.2675    1.9278    0.0000 C   0  0  0  0  0  0  0  0  0  0  0  0
    4.3337    2.9829    0.0000 O   0  0  0  0  0  0  0  0  0  0  0  0
    3.6481    0.4769    0.0000 C   0  0  0  0  0  0  0  0  0  0  0  0
    2.5818   -0.5782    0.0000 C   0  0  0  0  0  0  0  0  0  0  0  0
    2.9624   -2.0291    0.0000 N   0  0  0  0  0  0  0  0  0  0  0  0
    4.4092   -2.4249    0.0000 C   0  0  0  0  0  0  0  0  0  0  0  0
    5.4754   -1.3699    0.0000 C   0  0  0  0  0  0  0  0  0  0  0  0
    5.0949    0.0810    0.0000 C   0  0  0  0  0  0  0  0  0  0  0  0
   -2.4443   -1.8965    0.0000 C   0  0  0  0  0  0  0  0  0  0  0  0
   -3.8911   -1.5006    0.0000 C   0  0  0  0  0  0  0  0  0  0  0  0
  1  2  1  0
  2  3  2  0
  2  4  1  0
  4  5  2  0
  5  6  1  0
  6  7  2  0
  7  8  1  0
  8  9  1  0
  9 10  2  0
 10 11  1  0
 11 12  1  0
 12 13  2  0
 12 14  1  0
 14 15  2  0
 15 16  1  0
 16 17  1  0
 17 18  1  0
 18 19  1  0
  7 20  1  0
 20 21  2  0
 21  4  1  0
 15  9  1  0
 19 14  1  0
M  END
$$$$

     RDKit          2D

 30 33  0  0  0  0  0  0  0  0999 V2000
   -9.2475    1.9934    0.0000 C   0  0  0  0  0  0  0  0  0  0  0  0
   -7.7972    1.6106    0.0000 C   0  0  0  0  0  0  0  0  0  0  0  0
   -6.7405    2.6751    0.0000 C   0  0  0  0  0  0  0  0  0  0  0  0
   -5.2901    2.2923    0.0000 C   0  0  0  0  0  0  0  0  0  0  0  0
   -4.8966    0.8448    0.0000 C   0  0  0  0  0  0  0  0  0  0  0  0
   -3.4462    0.4619    0.0000 C   0  0  0  0  0  0  0  0  0  0  0  0
   -3.0527   -0.9855    0.0000 C   0  0  0  0  0  0  0  0  0  0  0  0
   -1.6024   -1.3684    0.0000 N   0  0  0  0  0  0  0  0  0  0  0  0
   -1.2088   -2.8158    0.0000 C   0  0  0  0  0  0  0  0  0  0  0  0
   -2.2655   -3.8804    0.0000 O   0  0  0  0  0  0  0  0  0  0  0  0
    0.2415   -3.1987    0.0000 C   0  0  0  0  0  0  0  0  0  0  0  0
    0.6351   -4.6461    0.0000 C   0  0  0  0  0  0  0  0  0  0  0  0
    2.0854   -5.0290    0.0000 C   0  0  0  0  0  0  0  0  0  0  0  0
    3.1422   -3.9644    0.0000 C   0  0  0  0  0  0  0  0  0  0  0  0
    2.7486   -2.5170    0.0000 C   0  0  0  0  0  0  0  0  0  0  0  0
    3.8053   -1.4524    0.0000 C   0  0  0  0  0  0  0  0  0  0  0  0
    3.4117   -0.0050    0.0000 C   0  0  0  0  0  0  0  0  0  0  0  0
    1.9614    0.3779    0.0000 N   0  0  0  0  0  0  0  0  0  0  0  0
    1.5678    1.8253    0.0000 N   0  0  0  0  0  0  0  0  0  0  0  0
    2.6246    2.8899    0.0000 C   0  0  0  0  0  0  0  0  0  0  0  0
    2.2310    4.3374    0.0000 O   0  0  0  0  0  0  0  0  0  0  0  0
    4.0749    2.5070    0.0000 C   0  0  0  0  0  0  0  0  0  0  0  0
    4.4685    1.0596    0.0000 C   0  0  0  0  0  0  0  0  0  0  0  0
    5.9188    0.6767    0.0000 C   0  0  0  0  0  0  0  0  0  0  0  0
    6.9755    1.7413    0.0000 C   0  0  0  0  0  0  0  0  0  0  0  0
    6.5819    3.1887    0.0000 C   0  0  0  0  0  0  0  0  0  0  0  0
    5.1316    3.5716    0.0000 C   0  0  0  0  0  0  0  0  0  0  0  0
    1.2983   -2.1341    0.0000 C   0  0  0  0  0  0  0  0  0  0  0  0
   -5.9533   -0.2198    0.0000 C   0  0  0  0  0  0  0  0  0  0  0  0
   -7.4036    0.1631    0.0000 C   0  0  0  0  0  0  0  0  0  0  0  0
  1  2  1  0
  2  3  2  0
  3  4  1  0
  4  5  2  0
  5  6  1  0
  6  7  1  0
  7  8  1  0
  8  9  1  0
  9 10  2  0
  9 11  1  0
 11 12  2  0
 12 13  1  0
 13 14  2  0
 14 15  1  0
 15 16  1  0
 16 17  1  0
 17 18  2  0
 18 19  1  0
 19 20  1  0
 20 21  2  0
 20 22  1  0
 22 23  2  0
 23 24  1  0
 24 25  1  0
 25 26  1  0
 26 27  1  0
 15 28  2  0
  5 29  1  0
 29 30  2  0
 30  2  1  0
 28 11  1  0
 23 17  1  0
 27 22  1  0
M  END
$$$$

     RDKit          2D

 20 22  0  0  0  0  0  0  0  0999 V2000
   -4.0923    2.3162    0.0000 N   0  0  0  0  0  0  0  0  0  0  0  0
   -3.6863    0.8722    0.0000 C   0  0  0  0  0  0  0  0  0  0  0  0
   -2.2327    0.5018    0.0000 C   0  0  0  0  0  0  0  0  0  0  0  0
   -1.8267   -0.9422    0.0000 C   0  0  0  0  0  0  0  0  0  0  0  0
   -0.3731   -1.3125    0.0000 C   0  0  0  0  0  0  0  0  0  0  0  0
    0.6744   -0.2389    0.0000 C   0  0  0  0  0  0  0  0  0  0  0  0
    0.2683    1.2051    0.0000 N   0  0  0  0  0  0  0  0  0  0  0  0
    1.3159    2.2788    0.0000 N   0  0  0  0  0  0  0  0  0  0  0  0
    2.7694    1.9085    0.0000 C   0  0  0  0  0  0  0  0  0  0  0  0
    3.8169    2.9821    0.0000 O   0  0  0  0  0  0  0  0  0  0  0  0
    3.1755    0.4645    0.0000 C   0  0  0  0  0  0  0  0  0  0  0  0
    2.1280   -0.6092    0.0000 C   0  0  0  0  0  0  0  0  0  0  0  0
    2.5340   -2.0532    0.0000 C   0  0  0  0  0  0  0  0  0  0  0  0
    3.9876   -2.4235    0.0000 C   0  0  0  0  0  0  0  0  0  0  0  0
    5.0351   -1.3499    0.0000 C   0  0  0  0  0  0  0  0  0  0  0  0
    4.6290    0.0941    0.0000 C   0  0  0  0  0  0  0  0  0  0  0  0
   -2.8742   -2.0158    0.0000 C   0  0  0  0  0  0  0  0  0  0  0  0
   -4.3277   -1.6455    0.0000 C   0  0  0  0  0  0  0  0  0  0  0  0
   -4.7338   -0.2015    0.0000 C   0  0  0  0  0  0  0  0  0  0  0  0
   -6.1874    0.1689    0.0000 F   0  0  0  0  0  0  0  0  0  0  0  0
  1  2  1  0
  2  3  2  0
  3  4  1  0
  4  5  1  0
  5  6  1  0
  6  7  2  0
  7  8  1  0
  8  9  1  0
  9 10  2  0
  9 11  1  0
 11 12  2  0
 12 13  1  0
 13 14  1  0
 14 15  1  0
 15 16  1  0
  4 17  2  0
 17 18  1  0
 18 19  2  0
 19 20  1  0
 19  2  1  0
 12  6  1  0
 16 11  1  0
M  END
$$$$

     RDKit          2D

 29 32  0  0  0  0  0  0  0  0999 V2000
   -7.8022    3.2778    0.0000 C   0  0  0  0  0  0  0  0  0  0  0  0
   -7.6691    1.7837    0.0000 O   0  0  0  0  0  0  0  0  0  0  0  0
   -6.3087    1.1519    0.0000 C   0  0  0  0  0  0  0  0  0  0  0  0
   -5.0813    2.0141    0.0000 C   0  0  0  0  0  0  0  0  0  0  0  0
   -3.7208    1.3823    0.0000 C   0  0  0  0  0  0  0  0  0  0  0  0
   -3.5878   -0.1118    0.0000 C   0  0  0  0  0  0  0  0  0  0  0  0
   -2.2273   -0.7436    0.0000 C   0  0  0  0  0  0  0  0  0  0  0  0
   -0.9999    0.1187    0.0000 O   0  0  0  0  0  0  0  0  0  0  0  0
   -2.0943   -2.2377    0.0000 N   0  0  0  0  0  0  0  0  0  0  0  0
   -0.7338   -2.8695    0.0000 C   0  0  0  0  0  0  0  0  0  0  0  0
   -0.6008   -4.3636    0.0000 C   0  0  0  0  0  0  0  0  0  0  0  0
    0.7596   -4.9954    0.0000 C   0  0  0  0  0  0  0  0  0  0  0  0
    1.9870   -4.1331    0.0000 N   0  0  0  0  0  0  0  0  0  0  0  0
    1.8540   -2.6391    0.0000 C   0  0  0  0  0  0  0  0  0  0  0  0
    3.0814   -1.7768    0.0000 C   0  0  0  0  0  0  0  0  0  0  0  0
    2.9483   -0.2827    0.0000 C   0  0  0  0  0  0  0  0  0  0  0  0
    1.5879    0.3491    0.0000 N   0  0  0  0  0  0  0  0  0  0  0  0
    1.4548    1.8432    0.0000 N   0  0  0  0  0  0  0  0  0  0  0  0
    2.6822    2.7055    0.0000 C   0  0  0  0  0  0  0  0  0  0  0  0
    2.5492    4.1996    0.0000 O   0  0  0  0  0  0  0  0  0  0  0  0
    4.0427    2.0737    0.0000 C   0  0  0  0  0  0  0  0  0  0  0  0
    4.1757    0.5796    0.0000 C   0  0  0  0  0  0  0  0  0  0  0  0
    5.5362   -0.0523    0.0000 C   0  0  0  0  0  0  0  0  0  0  0  0
    6.7636    0.8100    0.0000 C   0  0  0  0  0  0  0  0  0  0  0  0
    6.6305    2.3041    0.0000 C   0  0  0  0  0  0  0  0  0  0  0  0
    5.2701    2.9359    0.0000 C   0  0  0  0  0  0  0  0  0  0  0  0
    0.4935   -2.0072    0.0000 C   0  0  0  0  0  0  0  0  0  0  0  0
   -4.8152   -0.9740    0.0000 C   0  0  0  0  0  0  0  0  0  0  0  0
   -6.1756   -0.3422    0.0000 C   0  0  0  0  0  0  0  0  0  0  0  0
  1  2  1  0
  2  3  1  0
  3  4  2  0
  4  5  1  0
  5  6  2  0
  6  7  1  0
  7  8  2  0
  7  9  1  0
  9 10  1  0
 10 11  2  0
 11 12  1  0
 12 13  2  0
 13 14  1  0
 14 15  1  0
 15 16  1  0
 16 17  2  0
 17 18  1  0
 18 19  1  0
 19 20  2  0
 19 21  1  0
 21 22  2  0
 22 23  1  0
 23 24  1  0
 24 25  1  0
 25 26  1  0
 14 27  2  0
  6 28  1  0
 28 29  2  0
 29  3  1  0
 27 10  1  0
 22 16  1  0
 26 21  1  0
M  END
$$$$

     RDKit          2D

 29 32  0  0  0  0  0  0  0  0999 V2000
   -8.6570    2.2047    0.0000 C   0  0  0  0  0  0  0  0  0  0  0  0
   -8.4575    0.7181    0.0000 C   0  0  0  0  0  0  0  0  0  0  0  0
   -7.0703    0.1474    0.0000 N   0  0  0  0  0  0  0  0  0  0  0  0
   -5.8825    1.0635    0.0000 C   0  0  0  0  0  0  0  0  0  0  0  0
   -4.4953    0.4929    0.0000 C   0  0  0  0  0  0  0  0  0  0  0  0
   -4.2959   -0.9938    0.0000 N   0  0  0  0  0  0  0  0  0  0  0  0
   -2.9086   -1.5644    0.0000 C   0  0  0  0  0  0  0  0  0  0  0  0
   -2.7092   -3.0511    0.0000 O   0  0  0  0  0  0  0  0  0  0  0  0
   -1.7208   -0.6484    0.0000 C   0  0  0  0  0  0  0  0  0  0  0  0
   -0.3336   -1.2190    0.0000 C   0  0  0  0  0  0  0  0  0  0  0  0
    0.8542   -0.3029    0.0000 C   0  0  0  0  0  0  0  0  0  0  0  0
    2.2414   -0.8735    0.0000 C   0  0  0  0  0  0  0  0  0  0  0  0
    3.4292    0.0425    0.0000 C   0  0  0  0  0  0  0  0  0  0  0  0
    3.2297    1.5292    0.0000 N   0  0  0  0  0  0  0  0  0  0  0  0
    4.4175    2.4453    0.0000 N   0  0  0  0  0  0  0  0  0  0  0  0
    5.8047    1.8747    0.0000 C   0  0  0  0  0  0  0  0  0  0  0  0
    6.9925    2.7907    0.0000 O   0  0  0  0  0  0  0  0  0  0  0  0
    6.0042    0.3880    0.0000 C   0  0  0  0  0  0  0  0  0  0  0  0
    4.8164   -0.5281    0.0000 C   0  0  0  0  0  0  0  0  0  0  0  0
    5.0158   -2.0148    0.0000 N   0  0  0  0  0  0  0  0  0  0  0  0
    6.4031   -2.5854    0.0000 C   0  0  0  0  0  0  0  0  0  0  0  0
    7.5908   -1.6693    0.0000 C   0  0  0  0  0  0  0  0  0  0  0  0
    7.3914   -0.1826    0.0000 C   0  0  0  0  0  0  0  0  0  0  0  0
    0.6547    1.1838    0.0000 C   0  0  0  0  0  0  0  0  0  0  0  0
   -0.7325    1.7544    0.0000 C   0  0  0  0  0  0  0  0  0  0  0  0
   -1.9203    0.8383    0.0000 C   0  0  0  0  0  0  0  0  0  0  0  0
   -3.3075    1.4089    0.0000 F   0  0  0  0  0  0  0  0  0  0  0  0
   -5.4836   -1.9099    0.0000 C   0  0  0  0  0  0  0  0  0  0  0  0
   -6.8709   -1.3392    0.0000 C   0  0  0  0  0  0  0  0  0  0  0  0
  1  2  1  0
  2  3  1  0
  3  4  1  0
  4  5  1  0
  5  6  1  0
  6  7  1  0
  7  8  2  0
  7  9  1  0
  9 10  2  0
 10 11  1  0
 11 12  1  0
 12 13  1  0
 13 14  2  0
 14 15  1  0
 15 16  1  0
 16 17  2  0
 16 18  1  0
 18 19  2  0
 19 20  1  0
 20 21  1  0
 21 22  1  0
 22 23  1  0
 11 24  2  0
 24 25  1  0
 25 26  2  0
 26 27  1  0
  6 28  1  0
 28 29  1  0
 29  3  1  0
 26  9  1  0
 19 13  1  0
 23 18  1  0
M  END
$$$$

     RDKit          2D

 29 32  0  0  0  0  0  0  0  0999 V2000
   -1.4358    4.6762    0.0000 C   0  0  0  0  0  0  0  0  0  0  0  0
   -2.7888    4.0285    0.0000 C   0  0  0  0  0  0  0  0  0  0  0  0
   -4.0262    4.8763    0.0000 C   0  0  0  0  0  0  0  0  0  0  0  0
   -2.9043    2.5330    0.0000 N   0  0  0  0  0  0  0  0  0  0  0  0
   -1.6669    1.6851    0.0000 C   0  0  0  0  0  0  0  0  0  0  0  0
   -1.7825    0.1896    0.0000 C   0  0  0  0  0  0  0  0  0  0  0  0
   -3.1354   -0.4581    0.0000 N   0  0  0  0  0  0  0  0  0  0  0  0
   -3.2510   -1.9537    0.0000 C   0  0  0  0  0  0  0  0  0  0  0  0
   -4.6039   -2.6014    0.0000 O   0  0  0  0  0  0  0  0  0  0  0  0
   -2.0135   -2.8015    0.0000 C   0  0  0  0  0  0  0  0  0  0  0  0
   -2.1291   -4.2970    0.0000 C   0  0  0  0  0  0  0  0  0  0  0  0
   -0.8917   -5.1449    0.0000 C   0  0  0  0  0  0  0  0  0  0  0  0
    0.4613   -4.4972    0.0000 C   0  0  0  0  0  0  0  0  0  0  0  0
    0.5768   -3.0016    0.0000 C   0  0  0  0  0  0  0  0  0  0  0  0
    1.9298   -2.3539    0.0000 C   0  0  0  0  0  0  0  0  0  0  0  0
    2.0453   -0.8584    0.0000 C   0  0  0  0  0  0  0  0  0  0  0  0
    0.8079   -0.0105    0.0000 N   0  0  0  0  0  0  0  0  0  0  0  0
    0.9234    1.4850    0.0000 N   0  0  0  0  0  0  0  0  0  0  0  0
    2.2764    2.1327    0.0000 C   0  0  0  0  0  0  0  0  0  0  0  0
    2.3919    3.6283    0.0000 O   0  0  0  0  0  0  0  0  0  0  0  0
    3.5138    1.2849    0.0000 C   0  0  0  0  0  0  0  0  0  0  0  0
    3.3982   -0.2107    0.0000 C   0  0  0  0  0  0  0  0  0  0  0  0
    4.6357   -1.0585    0.0000 C   0  0  0  0  0  0  0  0  0  0  0  0
    5.9886   -0.4108    0.0000 C   0  0  0  0  0  0  0  0  0  0  0  0
    6.1041    1.0848    0.0000 C   0  0  0  0  0  0  0  0  0  0  0  0
    4.8667    1.9326    0.0000 C   0  0  0  0  0  0  0  0  0  0  0  0
   -0.6606   -2.1538    0.0000 C   0  0  0  0  0  0  0  0  0  0  0  0
   -4.3728    0.3897    0.0000 C   0  0  0  0  0  0  0  0  0  0  0  0
   -4.2573    1.8853    0.0000 C   0  0  0  0  0  0  0  0  0  0  0  0
  1  2  1  0
  2  3  1  0
  2  4  1  0
  4  5  1  0
  5  6  1  0
  6  7  1  0
  7  8  1  0
  8  9  2  0
  8 10  1  0
 10 11  2  0
 11 12  1  0
 12 13  2  0
 13 14  1  0
 14 15  1  0
 15 16  1  0
 16 17  2  0
 17 18  1  0
 18 19  1  0
 19 20  2  0
 19 21  1  0
 21 22  2  0
 22 23  1  0
 23 24  1  0
 24 25  1  0
 25 26  1  0
 14 27  2  0
  7 28  1  0
 28 29  1  0
 29  4  1  0
 27 10  1  0
 22 16  1  0
 26 21  1  0
M  END
$$$$

     RDKit          2D

 21 23  0  0  0  0  0  0  0  0999 V2000
   -5.5993    2.5815    0.0000 C   0  0  0  0  0  0  0  0  0  0  0  0
   -5.7620    1.0904    0.0000 S   0  0  0  0  0  0  0  0  0  0  0  0
   -4.5520    0.2039    0.0000 C   0  0  0  0  0  0  0  0  0  0  0  0
   -4.8256   -1.2709    0.0000 C   0  0  0  0  0  0  0  0  0  0  0  0
   -3.8432   -2.4044    0.0000 C   0  0  0  0  0  0  0  0  0  0  0  0
   -2.3444   -2.3430    0.0000 C   0  0  0  0  0  0  0  0  0  0  0  0
   -1.4580   -1.1330    0.0000 C   0  0  0  0  0  0  0  0  0  0  0  0
    0.0168   -1.4066    0.0000 C   0  0  0  0  0  0  0  0  0  0  0  0
    0.9913   -0.2662    0.0000 C   0  0  0  0  0  0  0  0  0  0  0  0
    0.4908    1.1478    0.0000 N   0  0  0  0  0  0  0  0  0  0  0  0
    1.4652    2.2882    0.0000 N   0  0  0  0  0  0  0  0  0  0  0  0
    2.9401    2.0146    0.0000 C   0  0  0  0  0  0  0  0  0  0  0  0
    3.9145    3.1550    0.0000 O   0  0  0  0  0  0  0  0  0  0  0  0
    3.4405    0.6005    0.0000 C   0  0  0  0  0  0  0  0  0  0  0  0
    2.4661   -0.5399    0.0000 C   0  0  0  0  0  0  0  0  0  0  0  0
    2.9665   -1.9539    0.0000 C   0  0  0  0  0  0  0  0  0  0  0  0
    4.4413   -2.2276    0.0000 C   0  0  0  0  0  0  0  0  0  0  0  0
    5.4157   -1.0872    0.0000 C   0  0  0  0  0  0  0  0  0  0  0  0
    4.9153    0.3269    0.0000 C   0  0  0  0  0  0  0  0  0  0  0  0
   -1.8513    0.3145    0.0000 C   0  0  0  0  0  0  0  0  0  0  0  0
   -3.2283    0.9095    0.0000 S   0  0  0  0  0  0  0  0  0  0  0  0
  1  2  1  0
  2  3  1  0
  3  4  2  0
  4  5  1  0
  5  6  2  0
  6  7  1  0
  7  8  1  0
  8  9  1  0
  9 10  2  0
 10 11  1  0
 11 12  1  0
 12 13  2  0
 12 14  1  0
 14 15  2  0
 15 16  1  0
 16 17  1  0
 17 18  1  0
 18 19  1  0
  7 20  2  0
 20 21  1  0
 21  3  1  0
 15  9  1  0
 19 14  1  0
M  END
$$$$

     RDKit          2D

 21 23  0  0  0  0  0  0  0  0999 V2000
   -6.8786   -2.5257    0.0000 C   0  0  0  0  0  0  0  0  0  0  0  0
   -6.0464   -1.2777    0.0000 C   0  0  0  0  0  0  0  0  0  0  0  0
   -4.5495   -1.3745    0.0000 C   0  0  0  0  0  0  0  0  0  0  0  0
   -3.7173   -0.1265    0.0000 C   0  0  0  0  0  0  0  0  0  0  0  0
   -4.3819    1.2182    0.0000 C   0  0  0  0  0  0  0  0  0  0  0  0
   -3.5497    2.4662    0.0000 C   0  0  0  0  0  0  0  0  0  0  0  0
   -2.0528    2.3694    0.0000 C   0  0  0  0  0  0  0  0  0  0  0  0
   -1.3882    1.0247    0.0000 C   0  0  0  0  0  0  0  0  0  0  0  0
    0.1087    0.9279    0.0000 C   0  0  0  0  0  0  0  0  0  0  0  0
    0.9103   -0.3399    0.0000 N   0  0  0  0  0  0  0  0  0  0  0  0
    2.3638    0.0306    0.0000 C   0  0  0  0  0  0  0  0  0  0  0  0
    3.6117   -0.8016    0.0000 C   0  0  0  0  0  0  0  0  0  0  0  0
    3.5150   -2.2985    0.0000 C   0  0  0  0  0  0  0  0  0  0  0  0
    4.7629   -3.1307    0.0000 N   0  0  0  0  0  0  0  0  0  0  0  0
    2.1703   -2.9632    0.0000 O   0  0  0  0  0  0  0  0  0  0  0  0
    4.9564   -0.1370    0.0000 C   0  0  0  0  0  0  0  0  0  0  0  0
    5.0532    1.3599    0.0000 C   0  0  0  0  0  0  0  0  0  0  0  0
    3.8052    2.1921    0.0000 C   0  0  0  0  0  0  0  0  0  0  0  0
    2.4605    1.5275    0.0000 C   0  0  0  0  0  0  0  0  0  0  0  0
    1.0668    2.0821    0.0000 N   0  0  0  0  0  0  0  0  0  0  0  0
   -2.2204   -0.2233    0.0000 C   0  0  0  0  0  0  0  0  0  0  0  0
  1  2  1  0
  2  3  1  0
  3  4  1  0
  4  5  2  0
  5  6  1  0
  6  7  2  0
  7  8  1  0
  8  9  1  0
  9 10  2  0
 10 11  1  0
 11 12  2  0
 12 13  1  0
 13 14  1  0
 13 15  2  0
 12 16  1  0
 16 17  2  0
 17 18  1  0
 18 19  2  0
 19 20  1  0
  8 21  2  0
 21  4  1  0
 20  9  1  0
 19 11  1  0
M  END
$$$$

     RDKit          2D

 29 32  0  0  0  0  0  0  0  0999 V2000
   -6.0986   -0.8132    0.0000 C   0  0  0  0  0  0  0  0  0  0  0  0
   -4.6112   -1.0076    0.0000 N   0  0  0  0  0  0  0  0  0  0  0  0
   -4.0359   -2.3929    0.0000 N   0  0  0  0  0  0  0  0  0  0  0  0
   -2.5485   -2.5873    0.0000 C   0  0  0  0  0  0  0  0  0  0  0  0
   -1.9732   -3.9726    0.0000 C   0  0  0  0  0  0  0  0  0  0  0  0
   -0.4859   -4.1670    0.0000 C   0  0  0  0  0  0  0  0  0  0  0  0
    0.4262   -2.9761    0.0000 C   0  0  0  0  0  0  0  0  0  0  0  0
   -0.1492   -1.5908    0.0000 C   0  0  0  0  0  0  0  0  0  0  0  0
    0.7629   -0.3999    0.0000 C   0  0  0  0  0  0  0  0  0  0  0  0
    2.2502   -0.5943    0.0000 C   0  0  0  0  0  0  0  0  0  0  0  0
    2.8255   -1.9796    0.0000 N   0  0  0  0  0  0  0  0  0  0  0  0
    4.3129   -2.1740    0.0000 N   0  0  0  0  0  0  0  0  0  0  0  0
    5.2249   -0.9831    0.0000 C   0  0  0  0  0  0  0  0  0  0  0  0
    6.7123   -1.1775    0.0000 O   0  0  0  0  0  0  0  0  0  0  0  0
    4.6496    0.4022    0.0000 C   0  0  0  0  0  0  0  0  0  0  0  0
    3.1623    0.5966    0.0000 C   0  0  0  0  0  0  0  0  0  0  0  0
    2.3869    1.8806    0.0000 C   0  0  0  0  0  0  0  0  0  0  0  0
    2.9074    3.2874    0.0000 C   0  0  0  0  0  0  0  0  0  0  0  0
    4.3318    3.7576    0.0000 C   0  0  0  0  0  0  0  0  0  0  0  0
    5.5875    2.9371    0.0000 C   0  0  0  0  0  0  0  0  0  0  0  0
    5.7289    1.4438    0.0000 C   0  0  0  0  0  0  0  0  0  0  0  0
   -1.6365   -1.3964    0.0000 C   0  0  0  0  0  0  0  0  0  0  0  0
   -3.6992    0.1833    0.0000 C   0  0  0  0  0  0  0  0  0  0  0  0
   -2.2118   -0.0111    0.0000 O   0  0  0  0  0  0  0  0  0  0  0  0
   -4.2745    1.5686    0.0000 C   0  0  0  0  0  0  0  0  0  0  0  0
   -5.7334    1.9174    0.0000 C   0  0  0  0  0  0  0  0  0  0  0  0
   -5.8525    3.4126    0.0000 C   0  0  0  0  0  0  0  0  0  0  0  0
   -4.4672    3.9880    0.0000 C   0  0  0  0  0  0  0  0  0  0  0  0
   -3.4919    2.8483    0.0000 O   0  0  0  0  0  0  0  0  0  0  0  0
  1  2  1  0
  2  3  1  0
  3  4  1  0
  4  5  2  0
  5  6  1  0
  6  7  2  0
  7  8  1  0
  8  9  1  0
  9 10  1  0
 10 11  2  0
 11 12  1  0
 12 13  1  0
 13 14  2  0
 13 15  1  0
 15 16  2  0
 16 17  1  0
 17 18  1  0
 18 19  1  0
 19 20  1  0
 20 21  1  0
  8 22  2  0
  2 23  1  0
 23 24  2  0
 23 25  1  0
 25 26  2  0
 26 27  1  0
 27 28  2  0
 28 29  1  0
 22  4  1  0
 29 25  1  0
 16 10  1  0
 21 15  1  0
M  END
$$$$

     RDKit          2D

 28 31  0  0  0  0  0  0  0  0999 V2000
   -2.7102    2.5524    0.0000 C   0  0  0  0  0  0  0  0  0  0  0  0
   -3.8346    1.5595    0.0000 C   0  0  0  0  0  0  0  0  0  0  0  0
   -2.7296    0.5451    0.0000 C   0  0  0  0  0  0  0  0  0  0  0  0
   -1.2986    0.9947    0.0000 O   0  0  0  0  0  0  0  0  0  0  0  0
   -3.0557   -0.9191    0.0000 N   0  0  0  0  0  0  0  0  0  0  0  0
   -1.9508   -1.9335    0.0000 C   0  0  0  0  0  0  0  0  0  0  0  0
   -2.2768   -3.3977    0.0000 C   0  0  0  0  0  0  0  0  0  0  0  0
   -1.1719   -4.4121    0.0000 C   0  0  0  0  0  0  0  0  0  0  0  0
    0.2591   -3.9624    0.0000 C   0  0  0  0  0  0  0  0  0  0  0  0
    0.5852   -2.4983    0.0000 C   0  0  0  0  0  0  0  0  0  0  0  0
    2.0162   -2.0486    0.0000 C   0  0  0  0  0  0  0  0  0  0  0  0
    2.3423   -0.5845    0.0000 C   0  0  0  0  0  0  0  0  0  0  0  0
    1.2373    0.4300    0.0000 N   0  0  0  0  0  0  0  0  0  0  0  0
    1.5634    1.8941    0.0000 N   0  0  0  0  0  0  0  0  0  0  0  0
    2.9944    2.3438    0.0000 C   0  0  0  0  0  0  0  0  0  0  0  0
    3.3205    3.8079    0.0000 O   0  0  0  0  0  0  0  0  0  0  0  0
    4.0993    1.3293    0.0000 C   0  0  0  0  0  0  0  0  0  0  0  0
    3.7733   -0.1348    0.0000 C   0  0  0  0  0  0  0  0  0  0  0  0
    4.8782   -1.1493    0.0000 C   0  0  0  0  0  0  0  0  0  0  0  0
    6.3092   -0.6996    0.0000 C   0  0  0  0  0  0  0  0  0  0  0  0
    6.6353    0.7645    0.0000 C   0  0  0  0  0  0  0  0  0  0  0  0
    5.5304    1.7790    0.0000 C   0  0  0  0  0  0  0  0  0  0  0  0
   -0.5198   -1.4838    0.0000 C   0  0  0  0  0  0  0  0  0  0  0  0
   -4.7044    2.7815    0.0000 C   0  0  0  0  0  0  0  0  0  0  0  0
   -6.1355    2.3319    0.0000 C   0  0  0  0  0  0  0  0  0  0  0  0
   -6.1500    0.8319    0.0000 N   0  0  0  0  0  0  0  0  0  0  0  0
   -4.7280    0.3546    0.0000 C   0  0  0  0  0  0  0  0  0  0  0  0
   -4.2783   -1.0764    0.0000 O   0  0  0  0  0  0  0  0  0  0  0  0
  1  2  1  0
  2  3  1  0
  3  4  2  0
  3  5  1  0
  5  6  1  0
  6  7  2  0
  7  8  1  0
  8  9  2  0
  9 10  1  0
 10 11  1  0
 11 12  1  0
 12 13  2  0
 13 14  1  0
 14 15  1  0
 15 16  2  0
 15 17  1  0
 17 18  2  0
 18 19  1  0
 19 20  1  0
 20 21  1  0
 21 22  1  0
 10 23  2  0
  2 24  1  0
 24 25  1  0
 25 26  1  0
 26 27  1  0
 27 28  2  0
 27  2  1  0
 23  6  1  0
 18 12  1  0
 22 17  1  0
M  END
$$$$

     RDKit          2D

 28 31  0  0  0  0  0  0  0  0999 V2000
   -1.3694    0.1292    0.0000 O   0  0  0  0  0  0  0  0  0  0  0  0
   -2.5997   -0.7289    0.0000 C   0  0  0  0  0  0  0  0  0  0  0  0
   -3.9580   -0.0925    0.0000 C   0  0  0  0  0  0  0  0  0  0  0  0
   -4.0861    1.4020    0.0000 C   0  0  0  0  0  0  0  0  0  0  0  0
   -5.4444    2.0384    0.0000 N   0  0  0  0  0  0  0  0  0  0  0  0
   -5.9549    3.4488    0.0000 C   0  0  0  0  0  0  0  0  0  0  0  0
   -7.3653    2.9383    0.0000 C   0  0  0  0  0  0  0  0  0  0  0  0
   -6.8548    1.5279    0.0000 C   0  0  0  0  0  0  0  0  0  0  0  0
   -2.4717   -2.2234    0.0000 C   0  0  0  0  0  0  0  0  0  0  0  0
   -3.7019   -3.0816    0.0000 O   0  0  0  0  0  0  0  0  0  0  0  0
   -1.1133   -2.8598    0.0000 C   0  0  0  0  0  0  0  0  0  0  0  0
   -0.9853   -4.3543    0.0000 C   0  0  0  0  0  0  0  0  0  0  0  0
    0.3730   -4.9907    0.0000 C   0  0  0  0  0  0  0  0  0  0  0  0
    1.6033   -4.1326    0.0000 C   0  0  0  0  0  0  0  0  0  0  0  0
    1.4753   -2.6380    0.0000 C   0  0  0  0  0  0  0  0  0  0  0  0
    2.7055   -1.7799    0.0000 C   0  0  0  0  0  0  0  0  0  0  0  0
    2.5775   -0.2854    0.0000 C   0  0  0  0  0  0  0  0  0  0  0  0
    1.2192    0.3510    0.0000 N   0  0  0  0  0  0  0  0  0  0  0  0
    1.0911    1.8455    0.0000 N   0  0  0  0  0  0  0  0  0  0  0  0
    2.3214    2.7037    0.0000 C   0  0  0  0  0  0  0  0  0  0  0  0
    2.1934    4.1982    0.0000 O   0  0  0  0  0  0  0  0  0  0  0  0
    3.6797    2.0673    0.0000 C   0  0  0  0  0  0  0  0  0  0  0  0
    3.8078    0.5728    0.0000 C   0  0  0  0  0  0  0  0  0  0  0  0
    5.1661   -0.0636    0.0000 C   0  0  0  0  0  0  0  0  0  0  0  0
    6.3964    0.7946    0.0000 C   0  0  0  0  0  0  0  0  0  0  0  0
    6.2683    2.2891    0.0000 C   0  0  0  0  0  0  0  0  0  0  0  0
    4.9100    2.9255    0.0000 C   0  0  0  0  0  0  0  0  0  0  0  0
    0.1169   -2.0017    0.0000 C   0  0  0  0  0  0  0  0  0  0  0  0
  1  2  2  0
  2  3  1  0
  3  4  1  0
  4  5  1  0
  5  6  1  0
  6  7  1  0
  7  8  1  0
  2  9  1  0
  9 10  2  0
  9 11  1  0
 11 12  2  0
 12 13  1  0
 13 14  2  0
 14 15  1  0
 15 16  1  0
 16 17  1  0
 17 18  2  0
 18 19  1  0
 19 20  1  0
 20 21  2  0
 20 22  1  0
 22 23  2  0
 23 24  1  0
 24 25  1  0
 25 26  1  0
 26 27  1  0
 15 28  2  0
  8  5  1  0
 28 11  1  0
 23 17  1  0
 27 22  1  0
M  END
$$$$

     RDKit          2D

 30 33  0  0  0  0  0  0  0  0999 V2000
   -9.7971    2.3424    0.0000 C   0  0  0  0  0  0  0  0  0  0  0  0
   -8.3908    1.8205    0.0000 C   0  0  0  0  0  0  0  0  0  0  0  0
   -8.1396    0.3417    0.0000 C   0  0  0  0  0  0  0  0  0  0  0  0
   -6.7333   -0.1802    0.0000 N   0  0  0  0  0  0  0  0  0  0  0  0
   -5.5782    0.7768    0.0000 C   0  0  0  0  0  0  0  0  0  0  0  0
   -4.1719    0.2549    0.0000 C   0  0  0  0  0  0  0  0  0  0  0  0
   -3.9207   -1.2239    0.0000 N   0  0  0  0  0  0  0  0  0  0  0  0
   -2.5144   -1.7457    0.0000 C   0  0  0  0  0  0  0  0  0  0  0  0
   -2.2632   -3.2246    0.0000 O   0  0  0  0  0  0  0  0  0  0  0  0
   -1.3593   -0.7888    0.0000 C   0  0  0  0  0  0  0  0  0  0  0  0
    0.0470   -1.3106    0.0000 C   0  0  0  0  0  0  0  0  0  0  0  0
    1.2020   -0.3537    0.0000 C   0  0  0  0  0  0  0  0  0  0  0  0
    2.6083   -0.8756    0.0000 C   0  0  0  0  0  0  0  0  0  0  0  0
    3.7634    0.0814    0.0000 C   0  0  0  0  0  0  0  0  0  0  0  0
    3.5122    1.5602    0.0000 N   0  0  0  0  0  0  0  0  0  0  0  0
    4.6673    2.5172    0.0000 N   0  0  0  0  0  0  0  0  0  0  0  0
    6.0736    1.9953    0.0000 C   0  0  0  0  0  0  0  0  0  0  0  0
    7.2287    2.9523    0.0000 O   0  0  0  0  0  0  0  0  0  0  0  0
    6.3248    0.5165    0.0000 C   0  0  0  0  0  0  0  0  0  0  0  0
    5.1697   -0.4405    0.0000 C   0  0  0  0  0  0  0  0  0  0  0  0
    5.4209   -1.9193    0.0000 C   0  0  0  0  0  0  0  0  0  0  0  0
    6.8272   -2.4411    0.0000 C   0  0  0  0  0  0  0  0  0  0  0  0
    7.9823   -1.4842    0.0000 C   0  0  0  0  0  0  0  0  0  0  0  0
    7.7311   -0.0054    0.0000 C   0  0  0  0  0  0  0  0  0  0  0  0
    0.9508    1.1251    0.0000 C   0  0  0  0  0  0  0  0  0  0  0  0
   -0.4555    1.6470    0.0000 C   0  0  0  0  0  0  0  0  0  0  0  0
   -1.6105    0.6900    0.0000 C   0  0  0  0  0  0  0  0  0  0  0  0
   -3.0168    1.2119    0.0000 F   0  0  0  0  0  0  0  0  0  0  0  0
   -5.0758   -2.1808    0.0000 C   0  0  0  0  0  0  0  0  0  0  0  0
   -6.4821   -1.6590    0.0000 C   0  0  0  0  0  0  0  0  0  0  0  0
  1  2  1  0
  2  3  1  0
  3  4  1  0
  4  5  1  0
  5  6  1  0
  6  7  1  0
  7  8  1  0
  8  9  2  0
  8 10  1  0
 10 11  2  0
 11 12  1  0
 12 13  1  0
 13 14  1  0
 14 15  2  0
 15 16  1  0
 16 17  1  0
 17 18  2  0
 17 19  1  0
 19 20  2  0
 20 21  1  0
 21 22  1  0
 22 23  1  0
 23 24  1  0
 12 25  2  0
 25 26  1  0
 26 27  2  0
 27 28  1  0
  7 29  1  0
 29 30  1  0
 30  4  1  0
 27 10  1  0
 20 14  1  0
 24 19  1  0
M  END
$$$$

     RDKit          2D

 38 41  0  0  0  0  0  0  0  0999 V2000
   11.7713   -0.4248    0.0000 N   0  0  0  0  0  0  0  0  0  0  0  0
   10.3033   -0.7334    0.0000 C   0  0  0  0  0  0  0  0  0  0  0  0
    9.8366   -2.1590    0.0000 O   0  0  0  0  0  0  0  0  0  0  0  0
    9.3021    0.3835    0.0000 C   0  0  0  0  0  0  0  0  0  0  0  0
    9.7689    1.8091    0.0000 O   0  0  0  0  0  0  0  0  0  0  0  0
    7.8342    0.0750    0.0000 N   0  0  0  0  0  0  0  0  0  0  0  0
    6.8330    1.1919    0.0000 C   0  0  0  0  0  0  0  0  0  0  0  0
    5.3651    0.8833    0.0000 C   0  0  0  0  0  0  0  0  0  0  0  0
    4.3639    2.0003    0.0000 O   0  0  0  0  0  0  0  0  0  0  0  0
    2.8960    1.6917    0.0000 C   0  0  0  0  0  0  0  0  0  0  0  0
    1.8948    2.8087    0.0000 C   0  0  0  0  0  0  0  0  0  0  0  0
    0.4269    2.5001    0.0000 C   0  0  0  0  0  0  0  0  0  0  0  0
   -0.5743    3.6170    0.0000 C   0  0  0  0  0  0  0  0  0  0  0  0
   -0.1076    5.0426    0.0000 O   0  0  0  0  0  0  0  0  0  0  0  0
   -2.0422    3.3085    0.0000 C   0  0  0  0  0  0  0  0  0  0  0  0
   -2.8620    2.0523    0.0000 C   0  0  0  0  0  0  0  0  0  0  0  0
   -4.1182    2.8720    0.0000 N   0  0  0  0  0  0  0  0  0  0  0  0
   -5.5861    2.5635    0.0000 C   0  0  0  0  0  0  0  0  0  0  0  0
   -6.5873    3.6804    0.0000 O   0  0  0  0  0  0  0  0  0  0  0  0
   -6.0528    1.1379    0.0000 C   0  0  0  0  0  0  0  0  0  0  0  0
   -7.5207    0.8293    0.0000 C   0  0  0  0  0  0  0  0  0  0  0  0
   -7.9874   -0.5962    0.0000 C   0  0  0  0  0  0  0  0  0  0  0  0
   -6.9862   -1.7132    0.0000 C   0  0  0  0  0  0  0  0  0  0  0  0
   -5.5183   -1.4046    0.0000 C   0  0  0  0  0  0  0  0  0  0  0  0
   -4.5171   -2.5215    0.0000 C   0  0  0  0  0  0  0  0  0  0  0  0
   -3.0492   -2.2130    0.0000 C   0  0  0  0  0  0  0  0  0  0  0  0
   -2.5825   -0.7874    0.0000 N   0  0  0  0  0  0  0  0  0  0  0  0
   -1.1146   -0.4788    0.0000 N   0  0  0  0  0  0  0  0  0  0  0  0
   -0.1134   -1.5958    0.0000 C   0  0  0  0  0  0  0  0  0  0  0  0
    1.3545   -1.2872    0.0000 O   0  0  0  0  0  0  0  0  0  0  0  0
   -0.5801   -3.0213    0.0000 C   0  0  0  0  0  0  0  0  0  0  0  0
   -2.0480   -3.3299    0.0000 C   0  0  0  0  0  0  0  0  0  0  0  0
   -2.5147   -4.7555    0.0000 C   0  0  0  0  0  0  0  0  0  0  0  0
   -1.5135   -5.8724    0.0000 C   0  0  0  0  0  0  0  0  0  0  0  0
   -0.0456   -5.5638    0.0000 C   0  0  0  0  0  0  0  0  0  0  0  0
    0.4211   -4.1383    0.0000 C   0  0  0  0  0  0  0  0  0  0  0  0
   -5.0516    0.0210    0.0000 C   0  0  0  0  0  0  0  0  0  0  0  0
   -3.2984    4.1282    0.0000 C   0  0  0  0  0  0  0  0  0  0  0  0
  1  2  1  0
  2  3  2  0
  2  4  1  0
  4  5  2  0
  4  6  1  0
  6  7  1  0
  7  8  1  0
  8  9  1  0
  9 10  1  0
 10 11  1  0
 11 12  1  0
 12 13  1  0
 13 14  2  0
 13 15  1  0
 15 16  1  0
 16 17  1  0
 17 18  1  0
 18 19  2  0
 18 20  1  0
 20 21  2  0
 21 22  1  0
 22 23  2  0
 23 24  1  0
 24 25  1  0
 25 26  1  0
 26 27  2  0
 27 28  1  0
 28 29  1  0
 29 30  2  0
 29 31  1  0
 31 32  2  0
 32 33  1  0
 33 34  1  0
 34 35  1  0
 35 36  1  0
 24 37  2  0
 17 38  1  0
 38 15  1  0
 37 20  1  0
 32 26  1  0
 36 31  1  0
M  END
$$$$

     RDKit          2D

 28 31  0  0  0  0  0  0  0  0999 V2000
   -1.6278    0.0394    0.0000 O   0  0  0  0  0  0  0  0  0  0  0  0
   -2.8879   -0.7744    0.0000 C   0  0  0  0  0  0  0  0  0  0  0  0
   -2.8132   -2.2725    0.0000 C   0  0  0  0  0  0  0  0  0  0  0  0
   -1.4784   -2.9569    0.0000 C   0  0  0  0  0  0  0  0  0  0  0  0
   -1.4037   -4.4551    0.0000 C   0  0  0  0  0  0  0  0  0  0  0  0
   -0.0689   -5.1394    0.0000 C   0  0  0  0  0  0  0  0  0  0  0  0
    1.1911   -4.3257    0.0000 C   0  0  0  0  0  0  0  0  0  0  0  0
    1.1165   -2.8276    0.0000 C   0  0  0  0  0  0  0  0  0  0  0  0
    2.3765   -2.0138    0.0000 C   0  0  0  0  0  0  0  0  0  0  0  0
    2.3018   -0.5157    0.0000 C   0  0  0  0  0  0  0  0  0  0  0  0
    0.9671    0.1687    0.0000 N   0  0  0  0  0  0  0  0  0  0  0  0
    0.8924    1.6669    0.0000 N   0  0  0  0  0  0  0  0  0  0  0  0
    2.1525    2.4806    0.0000 C   0  0  0  0  0  0  0  0  0  0  0  0
    2.0778    3.9788    0.0000 O   0  0  0  0  0  0  0  0  0  0  0  0
    3.4872    1.7962    0.0000 C   0  0  0  0  0  0  0  0  0  0  0  0
    3.5619    0.2981    0.0000 C   0  0  0  0  0  0  0  0  0  0  0  0
    4.8967   -0.3863    0.0000 C   0  0  0  0  0  0  0  0  0  0  0  0
    6.1568    0.4275    0.0000 C   0  0  0  0  0  0  0  0  0  0  0  0
    6.0821    1.9256    0.0000 C   0  0  0  0  0  0  0  0  0  0  0  0
    4.7473    2.6100    0.0000 C   0  0  0  0  0  0  0  0  0  0  0  0
   -0.2183   -2.1432    0.0000 C   0  0  0  0  0  0  0  0  0  0  0  0
   -4.2226   -0.0900    0.0000 C   0  0  0  0  0  0  0  0  0  0  0  0
   -5.4827   -0.9038    0.0000 O   0  0  0  0  0  0  0  0  0  0  0  0
   -4.2973    1.4081    0.0000 N   0  0  0  0  0  0  0  0  0  0  0  0
   -5.5532    2.2283    0.0000 C   0  0  0  0  0  0  0  0  0  0  0  0
   -5.1613    3.6762    0.0000 C   0  0  0  0  0  0  0  0  0  0  0  0
   -3.6632    3.7509    0.0000 C   0  0  0  0  0  0  0  0  0  0  0  0
   -3.1292    2.3491    0.0000 C   0  0  0  0  0  0  0  0  0  0  0  0
  1  2  2  0
  2  3  1  0
  3  4  1  0
  4  5  2  0
  5  6  1  0
  6  7  2  0
  7  8  1  0
  8  9  1  0
  9 10  1  0
 10 11  2  0
 11 12  1  0
 12 13  1  0
 13 14  2  0
 13 15  1  0
 15 16  2  0
 16 17  1  0
 17 18  1  0
 18 19  1  0
 19 20  1  0
  8 21  2  0
  2 22  1  0
 22 23  2  0
 22 24  1  0
 24 25  1  0
 25 26  1  0
 26 27  1  0
 27 28  1  0
 21  4  1  0
 28 24  1  0
 16 10  1  0
 20 15  1  0
M  END
$$$$

     RDKit          2D

  5  5  0  0  0  0  0  0  0  0999 V2000
    1.2760   -0.0000    0.0000 C   0  0  0  0  0  0  0  0  0  0  0  0
    0.3943    1.2135    0.0000 C   0  0  0  0  0  0  0  0  0  0  0  0
   -1.0323    0.7500    0.0000 C   0  0  0  0  0  0  0  0  0  0  0  0
   -1.0323   -0.7500    0.0000 C   0  0  0  0  0  0  0  0  0  0  0  0
    0.3943   -1.2135    0.0000 C   0  0  0  0  0  0  0  0  0  0  0  0
  1  2  1  0
  2  3  1  0
  3  4  1  0
  4  5  1  0
  5  1  1  0
M  END
$$$$

     RDKit          2D

 29 32  0  0  0  0  0  0  0  0999 V2000
   -3.7693    3.0602    0.0000 C   0  0  0  0  0  0  0  0  0  0  0  0
   -4.2652    1.6446    0.0000 C   0  0  0  0  0  0  0  0  0  0  0  0
   -3.2871    0.5073    0.0000 N   0  0  0  0  0  0  0  0  0  0  0  0
   -1.8132    0.7857    0.0000 C   0  0  0  0  0  0  0  0  0  0  0  0
   -1.3173    2.2013    0.0000 C   0  0  0  0  0  0  0  0  0  0  0  0
   -2.1711    3.4346    0.0000 C   0  0  0  0  0  0  0  0  0  0  0  0
   -1.2620    4.6278    0.0000 C   0  0  0  0  0  0  0  0  0  0  0  0
    0.1536    4.1319    0.0000 S   0  0  0  0  0  0  0  0  0  0  0  0
    0.1195    2.6322    0.0000 C   0  0  0  0  0  0  0  0  0  0  0  0
   -3.7830   -0.9084    0.0000 C   0  0  0  0  0  0  0  0  0  0  0  0
   -5.2569   -1.1867    0.0000 O   0  0  0  0  0  0  0  0  0  0  0  0
   -2.8049   -2.0457    0.0000 C   0  0  0  0  0  0  0  0  0  0  0  0
   -3.3008   -3.4613    0.0000 C   0  0  0  0  0  0  0  0  0  0  0  0
   -2.3228   -4.5986    0.0000 C   0  0  0  0  0  0  0  0  0  0  0  0
   -0.8488   -4.3202    0.0000 C   0  0  0  0  0  0  0  0  0  0  0  0
   -0.3529   -2.9046    0.0000 C   0  0  0  0  0  0  0  0  0  0  0  0
    1.1210   -2.6262    0.0000 C   0  0  0  0  0  0  0  0  0  0  0  0
    1.6169   -1.2105    0.0000 C   0  0  0  0  0  0  0  0  0  0  0  0
    0.6388   -0.0732    0.0000 N   0  0  0  0  0  0  0  0  0  0  0  0
    1.1347    1.3424    0.0000 N   0  0  0  0  0  0  0  0  0  0  0  0
    2.6087    1.6208    0.0000 C   0  0  0  0  0  0  0  0  0  0  0  0
    3.1046    3.0365    0.0000 O   0  0  0  0  0  0  0  0  0  0  0  0
    3.5867    0.4835    0.0000 C   0  0  0  0  0  0  0  0  0  0  0  0
    3.0908   -0.9321    0.0000 C   0  0  0  0  0  0  0  0  0  0  0  0
    4.0689   -2.0694    0.0000 C   0  0  0  0  0  0  0  0  0  0  0  0
    5.5428   -1.7910    0.0000 C   0  0  0  0  0  0  0  0  0  0  0  0
    6.0387   -0.3754    0.0000 C   0  0  0  0  0  0  0  0  0  0  0  0
    5.0607    0.7619    0.0000 C   0  0  0  0  0  0  0  0  0  0  0  0
   -1.3310   -1.7673    0.0000 C   0  0  0  0  0  0  0  0  0  0  0  0
  1  2  1  0
  2  3  1  0
  3  4  1  0
  4  5  1  0
  5  6  1  0
  6  7  2  0
  7  8  1  0
  8  9  1  0
  3 10  1  0
 10 11  2  0
 10 12  1  0
 12 13  2  0
 13 14  1  0
 14 15  2  0
 15 16  1  0
 16 17  1  0
 17 18  1  0
 18 19  2  0
 19 20  1  0
 20 21  1  0
 21 22  2  0
 21 23  1  0
 23 24  2  0
 24 25  1  0
 25 26  1  0
 26 27  1  0
 27 28  1  0
 16 29  2  0
  9  5  2  0
 29 12  1  0
 24 18  1  0
 28 23  1  0
M  END
$$$$

     RDKit          2D

 28 31  0  0  0  0  0  0  0  0999 V2000
   -1.2848    0.4100    0.0000 O   0  0  0  0  0  0  0  0  0  0  0  0
   -2.6047   -0.3028    0.0000 C   0  0  0  0  0  0  0  0  0  0  0  0
   -2.6474   -1.8021    0.0000 N   0  0  0  0  0  0  0  0  0  0  0  0
   -1.3702   -2.5888    0.0000 C   0  0  0  0  0  0  0  0  0  0  0  0
   -1.4129   -4.0882    0.0000 C   0  0  0  0  0  0  0  0  0  0  0  0
   -0.1357   -4.8749    0.0000 C   0  0  0  0  0  0  0  0  0  0  0  0
    1.1841   -4.1622    0.0000 C   0  0  0  0  0  0  0  0  0  0  0  0
    1.2268   -2.6628    0.0000 C   0  0  0  0  0  0  0  0  0  0  0  0
    2.5467   -1.9501    0.0000 C   0  0  0  0  0  0  0  0  0  0  0  0
    2.5894   -0.4507    0.0000 C   0  0  0  0  0  0  0  0  0  0  0  0
    1.3122    0.3360    0.0000 N   0  0  0  0  0  0  0  0  0  0  0  0
    1.3549    1.8354    0.0000 N   0  0  0  0  0  0  0  0  0  0  0  0
    2.6748    2.5481    0.0000 C   0  0  0  0  0  0  0  0  0  0  0  0
    2.7175    4.0475    0.0000 O   0  0  0  0  0  0  0  0  0  0  0  0
    3.9520    1.7614    0.0000 C   0  0  0  0  0  0  0  0  0  0  0  0
    3.9093    0.2620    0.0000 C   0  0  0  0  0  0  0  0  0  0  0  0
    5.1864   -0.5247    0.0000 C   0  0  0  0  0  0  0  0  0  0  0  0
    6.5063    0.1881    0.0000 C   0  0  0  0  0  0  0  0  0  0  0  0
    6.5490    1.6874    0.0000 C   0  0  0  0  0  0  0  0  0  0  0  0
    5.2718    2.4741    0.0000 C   0  0  0  0  0  0  0  0  0  0  0  0
   -0.0503   -1.8761    0.0000 C   0  0  0  0  0  0  0  0  0  0  0  0
   -3.8818    0.4839    0.0000 N   0  0  0  0  0  0  0  0  0  0  0  0
   -5.1447   -0.3254    0.0000 C   0  0  0  0  0  0  0  0  0  0  0  0
   -6.5649    0.1573    0.0000 C   0  0  0  0  0  0  0  0  0  0  0  0
   -7.0730    1.5687    0.0000 C   0  0  0  0  0  0  0  0  0  0  0  0
   -6.2863    2.8458    0.0000 C   0  0  0  0  0  0  0  0  0  0  0  0
   -4.7973    3.0271    0.0000 C   0  0  0  0  0  0  0  0  0  0  0  0
   -3.7272    1.9759    0.0000 C   0  0  0  0  0  0  0  0  0  0  0  0
  1  2  2  0
  2  3  1  0
  3  4  1  0
  4  5  2  0
  5  6  1  0
  6  7  2  0
  7  8  1  0
  8  9  1  0
  9 10  1  0
 10 11  2  0
 11 12  1  0
 12 13  1  0
 13 14  2  0
 13 15  1  0
 15 16  2  0
 16 17  1  0
 17 18  1  0
 18 19  1  0
 19 20  1  0
  8 21  2  0
  2 22  1  0
 22 23  1  0
 23 24  1  0
 24 25  1  0
 25 26  1  0
 26 27  1  0
 27 28  1  0
 21  4  1  0
 28 22  1  0
 16 10  1  0
 20 15  1  0
M  END
$$$$

     RDKit          2D

 26 28  0  0  0  0  0  0  0  0999 V2000
   -5.2960    3.6499    0.0000 C   0  0  0  0  0  0  0  0  0  0  0  0
   -4.1456    2.6872    0.0000 N   0  0  0  0  0  0  0  0  0  0  0  0
   -2.7368    3.2022    0.0000 C   0  0  0  0  0  0  0  0  0  0  0  0
   -4.4041    1.2097    0.0000 C   0  0  0  0  0  0  0  0  0  0  0  0
   -5.8129    0.6947    0.0000 O   0  0  0  0  0  0  0  0  0  0  0  0
   -3.2537    0.2470    0.0000 C   0  0  0  0  0  0  0  0  0  0  0  0
   -1.8449    0.7620    0.0000 O   0  0  0  0  0  0  0  0  0  0  0  0
   -3.5122   -1.2305    0.0000 N   0  0  0  0  0  0  0  0  0  0  0  0
   -2.3618   -2.1931    0.0000 C   0  0  0  0  0  0  0  0  0  0  0  0
   -0.9529   -1.6782    0.0000 C   0  0  0  0  0  0  0  0  0  0  0  0
    0.1974   -2.6408    0.0000 C   0  0  0  0  0  0  0  0  0  0  0  0
    1.6063   -2.1259    0.0000 C   0  0  0  0  0  0  0  0  0  0  0  0
    1.8647   -0.6483    0.0000 C   0  0  0  0  0  0  0  0  0  0  0  0
    0.7144    0.3143    0.0000 N   0  0  0  0  0  0  0  0  0  0  0  0
    0.9728    1.7919    0.0000 N   0  0  0  0  0  0  0  0  0  0  0  0
    2.3817    2.3068    0.0000 C   0  0  0  0  0  0  0  0  0  0  0  0
    2.6401    3.7844    0.0000 O   0  0  0  0  0  0  0  0  0  0  0  0
    3.5320    1.3442    0.0000 C   0  0  0  0  0  0  0  0  0  0  0  0
    3.2736   -0.1334    0.0000 C   0  0  0  0  0  0  0  0  0  0  0  0
    4.4239   -1.0960    0.0000 C   0  0  0  0  0  0  0  0  0  0  0  0
    5.8328   -0.5811    0.0000 C   0  0  0  0  0  0  0  0  0  0  0  0
    6.0913    0.8965    0.0000 C   0  0  0  0  0  0  0  0  0  0  0  0
    4.9409    1.8591    0.0000 C   0  0  0  0  0  0  0  0  0  0  0  0
   -0.0610   -4.1184    0.0000 C   0  0  0  0  0  0  0  0  0  0  0  0
   -1.4699   -4.6333    0.0000 C   0  0  0  0  0  0  0  0  0  0  0  0
   -2.6203   -3.6707    0.0000 N   0  0  0  0  0  0  0  0  0  0  0  0
  1  2  1  0
  2  3  1  0
  2  4  1  0
  4  5  2  0
  4  6  1  0
  6  7  2  0
  6  8  1  0
  8  9  1  0
  9 10  2  0
 10 11  1  0
 11 12  1  0
 12 13  1  0
 13 14  2  0
 14 15  1  0
 15 16  1  0
 16 17  2  0
 16 18  1  0
 18 19  2  0
 19 20  1  0
 20 21  1  0
 21 22  1  0
 22 23  1  0
 11 24  2  0
 24 25  1  0
 25 26  2  0
 26  9  1  0
 19 13  1  0
 23 18  1  0
M  END
$$$$

     RDKit          2D

 20 22  0  0  0  0  0  0  0  0999 V2000
    3.8169   -2.9821    0.0000 O   0  0  0  0  0  0  0  0  0  0  0  0
    2.7694   -1.9085    0.0000 C   0  0  0  0  0  0  0  0  0  0  0  0
    1.3159   -2.2788    0.0000 N   0  0  0  0  0  0  0  0  0  0  0  0
    0.2683   -1.2051    0.0000 N   0  0  0  0  0  0  0  0  0  0  0  0
    0.6744    0.2389    0.0000 C   0  0  0  0  0  0  0  0  0  0  0  0
   -0.3731    1.3125    0.0000 C   0  0  0  0  0  0  0  0  0  0  0  0
   -1.8267    0.9422    0.0000 C   0  0  0  0  0  0  0  0  0  0  0  0
   -2.8742    2.0158    0.0000 C   0  0  0  0  0  0  0  0  0  0  0  0
   -4.3277    1.6455    0.0000 C   0  0  0  0  0  0  0  0  0  0  0  0
   -4.7338    0.2015    0.0000 C   0  0  0  0  0  0  0  0  0  0  0  0
   -6.1874   -0.1689    0.0000 F   0  0  0  0  0  0  0  0  0  0  0  0
   -3.6863   -0.8722    0.0000 C   0  0  0  0  0  0  0  0  0  0  0  0
   -4.0923   -2.3162    0.0000 F   0  0  0  0  0  0  0  0  0  0  0  0
   -2.2327   -0.5018    0.0000 C   0  0  0  0  0  0  0  0  0  0  0  0
    2.1280    0.6092    0.0000 C   0  0  0  0  0  0  0  0  0  0  0  0
    3.1755   -0.4645    0.0000 C   0  0  0  0  0  0  0  0  0  0  0  0
    4.6290   -0.0941    0.0000 C   0  0  0  0  0  0  0  0  0  0  0  0
    5.0351    1.3499    0.0000 C   0  0  0  0  0  0  0  0  0  0  0  0
    3.9876    2.4235    0.0000 C   0  0  0  0  0  0  0  0  0  0  0  0
    2.5340    2.0532    0.0000 N   0  0  0  0  0  0  0  0  0  0  0  0
  1  2  2  0
  2  3  1  0
  3  4  1  0
  4  5  2  0
  5  6  1  0
  6  7  1  0
  7  8  2  0
  8  9  1  0
  9 10  2  0
 10 11  1  0
 10 12  1  0
 12 13  1  0
 12 14  2  0
  5 15  1  0
 15 16  2  0
 16 17  1  0
 17 18  1  0
 18 19  1  0
 19 20  1  0
 16  2  1  0
 14  7  1  0
 20 15  1  0
M  END
$$$$

     RDKit          2D

 16 18  0  0  0  0  0  0  0  0999 V2000
    4.8780    0.7885    0.0000 C   0  0  0  0  0  0  0  0  0  0  0  0
    3.8196   -0.2744    0.0000 C   0  0  0  0  0  0  0  0  0  0  0  0
    2.3699    0.1107    0.0000 C   0  0  0  0  0  0  0  0  0  0  0  0
    1.8294    1.5099    0.0000 C   0  0  0  0  0  0  0  0  0  0  0  0
    0.3316    1.4282    0.0000 N   0  0  0  0  0  0  0  0  0  0  0  0
   -0.0535   -0.0215    0.0000 C   0  0  0  0  0  0  0  0  0  0  0  0
   -1.3886   -0.7053    0.0000 C   0  0  0  0  0  0  0  0  0  0  0  0
   -1.4639   -2.2034    0.0000 C   0  0  0  0  0  0  0  0  0  0  0  0
   -0.2042   -3.0177    0.0000 C   0  0  0  0  0  0  0  0  0  0  0  0
    1.1309   -2.3339    0.0000 C   0  0  0  0  0  0  0  0  0  0  0  0
    1.2062   -0.8358    0.0000 C   0  0  0  0  0  0  0  0  0  0  0  0
   -2.7366   -0.0473    0.0000 C   0  0  0  0  0  0  0  0  0  0  0  0
   -3.9143   -0.9762    0.0000 O   0  0  0  0  0  0  0  0  0  0  0  0
   -3.0625    1.4169    0.0000 N   0  0  0  0  0  0  0  0  0  0  0  0
   -2.1210    2.5846    0.0000 C   0  0  0  0  0  0  0  0  0  0  0  0
   -0.6210    2.5766    0.0000 C   0  0  0  0  0  0  0  0  0  0  0  0
  1  2  1  0
  2  3  1  0
  3  4  2  0
  4  5  1  0
  5  6  1  0
  6  7  2  0
  7  8  1  0
  8  9  2  0
  9 10  1  0
 10 11  2  0
  7 12  1  0
 12 13  2  0
 12 14  1  0
 14 15  1  0
 15 16  1  0
 11  3  1  0
 16  5  1  0
 11  6  1  0
M  END
$$$$

     RDKit          2D

 23 25  0  0  0  0  0  0  0  0999 V2000
   -3.7472    3.8003    0.0000 O   0  0  0  0  0  0  0  0  0  0  0  0
   -3.1180    2.4387    0.0000 C   0  0  0  0  0  0  0  0  0  0  0  0
   -1.6242    2.3028    0.0000 Cl  0  0  0  0  0  0  0  0  0  0  0  0
   -3.9826    1.2130    0.0000 N   0  0  0  0  0  0  0  0  0  0  0  0
   -3.3533   -0.1487    0.0000 C   0  0  0  0  0  0  0  0  0  0  0  0
   -1.8595   -0.2846    0.0000 C   0  0  0  0  0  0  0  0  0  0  0  0
   -1.2303   -1.6462    0.0000 C   0  0  0  0  0  0  0  0  0  0  0  0
    0.2636   -1.7821    0.0000 C   0  0  0  0  0  0  0  0  0  0  0  0
    1.1282   -0.5563    0.0000 C   0  0  0  0  0  0  0  0  0  0  0  0
    0.4989    0.8053    0.0000 N   0  0  0  0  0  0  0  0  0  0  0  0
    1.3635    2.0311    0.0000 N   0  0  0  0  0  0  0  0  0  0  0  0
    2.8573    1.8952    0.0000 C   0  0  0  0  0  0  0  0  0  0  0  0
    3.7219    3.1209    0.0000 O   0  0  0  0  0  0  0  0  0  0  0  0
    3.4866    0.5336    0.0000 C   0  0  0  0  0  0  0  0  0  0  0  0
    2.6220   -0.6922    0.0000 C   0  0  0  0  0  0  0  0  0  0  0  0
    3.2512   -2.0538    0.0000 C   0  0  0  0  0  0  0  0  0  0  0  0
    4.7451   -2.1897    0.0000 C   0  0  0  0  0  0  0  0  0  0  0  0
    5.6097   -0.9640    0.0000 C   0  0  0  0  0  0  0  0  0  0  0  0
    4.9804    0.3977    0.0000 C   0  0  0  0  0  0  0  0  0  0  0  0
   -2.0949   -2.8720    0.0000 C   0  0  0  0  0  0  0  0  0  0  0  0
   -3.5887   -2.7361    0.0000 C   0  0  0  0  0  0  0  0  0  0  0  0
   -4.2179   -1.3744    0.0000 C   0  0  0  0  0  0  0  0  0  0  0  0
   -5.7118   -1.2386    0.0000 F   0  0  0  0  0  0  0  0  0  0  0  0
  1  2  2  0
  2  3  1  0
  2  4  1  0
  4  5  1  0
  5  6  2  0
  6  7  1  0
  7  8  1  0
  8  9  1  0
  9 10  2  0
 10 11  1  0
 11 12  1  0
 12 13  2  0
 12 14  1  0
 14 15  2  0
 15 16  1  0
 16 17  1  0
 17 18  1  0
 18 19  1  0
  7 20  2  0
 20 21  1  0
 21 22  2  0
 22 23  1  0
 22  5  1  0
 15  9  1  0
 19 14  1  0
M  END
$$$$

     RDKit          2D

 28 31  0  0  0  0  0  0  0  0999 V2000
   -3.1132   -2.8728    0.0000 O   0  0  0  0  0  0  0  0  0  0  0  0
   -3.2643   -1.3805    0.0000 C   0  0  0  0  0  0  0  0  0  0  0  0
   -2.0474   -0.5034    0.0000 C   0  0  0  0  0  0  0  0  0  0  0  0
   -0.6795   -1.1188    0.0000 C   0  0  0  0  0  0  0  0  0  0  0  0
    0.5374   -0.2417    0.0000 C   0  0  0  0  0  0  0  0  0  0  0  0
    1.9054   -0.8571    0.0000 C   0  0  0  0  0  0  0  0  0  0  0  0
    3.1223    0.0199    0.0000 C   0  0  0  0  0  0  0  0  0  0  0  0
    2.9712    1.5123    0.0000 N   0  0  0  0  0  0  0  0  0  0  0  0
    4.1881    2.3893    0.0000 N   0  0  0  0  0  0  0  0  0  0  0  0
    5.5561    1.7740    0.0000 C   0  0  0  0  0  0  0  0  0  0  0  0
    6.7730    2.6510    0.0000 O   0  0  0  0  0  0  0  0  0  0  0  0
    5.7071    0.2816    0.0000 C   0  0  0  0  0  0  0  0  0  0  0  0
    4.4903   -0.5954    0.0000 C   0  0  0  0  0  0  0  0  0  0  0  0
    4.6413   -2.0878    0.0000 C   0  0  0  0  0  0  0  0  0  0  0  0
    6.0093   -2.7031    0.0000 C   0  0  0  0  0  0  0  0  0  0  0  0
    7.2262   -1.8261    0.0000 C   0  0  0  0  0  0  0  0  0  0  0  0
    7.0751   -0.3337    0.0000 C   0  0  0  0  0  0  0  0  0  0  0  0
    0.3863    1.2506    0.0000 C   0  0  0  0  0  0  0  0  0  0  0  0
   -0.9816    1.8660    0.0000 C   0  0  0  0  0  0  0  0  0  0  0  0
   -2.1985    0.9889    0.0000 C   0  0  0  0  0  0  0  0  0  0  0  0
   -3.5665    1.6043    0.0000 F   0  0  0  0  0  0  0  0  0  0  0  0
   -4.6323   -0.7651    0.0000 N   0  0  0  0  0  0  0  0  0  0  0  0
   -4.7834    0.7273    0.0000 C   0  0  0  0  0  0  0  0  0  0  0  0
   -6.1514    1.3426    0.0000 C   0  0  0  0  0  0  0  0  0  0  0  0
   -7.3683    0.4656    0.0000 C   0  0  0  0  0  0  0  0  0  0  0  0
   -8.7362    1.0809    0.0000 O   0  0  0  0  0  0  0  0  0  0  0  0
   -7.2172   -1.0268    0.0000 C   0  0  0  0  0  0  0  0  0  0  0  0
   -5.8492   -1.6421    0.0000 C   0  0  0  0  0  0  0  0  0  0  0  0
  1  2  2  0
  2  3  1  0
  3  4  2  0
  4  5  1  0
  5  6  1  0
  6  7  1  0
  7  8  2  0
  8  9  1  0
  9 10  1  0
 10 11  2  0
 10 12  1  0
 12 13  2  0
 13 14  1  0
 14 15  1  0
 15 16  1  0
 16 17  1  0
  5 18  2  0
 18 19  1  0
 19 20  2  0
 20 21  1  0
  2 22  1  0
 22 23  1  0
 23 24  1  0
 24 25  1  0
 25 26  1  0
 25 27  1  0
 27 28  1  0
 20  3  1  0
 28 22  1  0
 13  7  1  0
 17 12  1  0
M  END
$$$$

     RDKit          2D

 20 22  0  0  0  0  0  0  0  0999 V2000
   -6.4777    1.6108    0.0000 C   0  0  0  0  0  0  0  0  0  0  0  0
   -6.0634    0.1692    0.0000 N   0  0  0  0  0  0  0  0  0  0  0  0
   -4.6077   -0.1928    0.0000 C   0  0  0  0  0  0  0  0  0  0  0  0
   -3.5664    0.8868    0.0000 C   0  0  0  0  0  0  0  0  0  0  0  0
   -2.1107    0.5249    0.0000 C   0  0  0  0  0  0  0  0  0  0  0  0
   -1.6964   -0.9168    0.0000 C   0  0  0  0  0  0  0  0  0  0  0  0
   -0.2407   -1.2787    0.0000 C   0  0  0  0  0  0  0  0  0  0  0  0
    0.8006   -0.1991    0.0000 C   0  0  0  0  0  0  0  0  0  0  0  0
    0.3863    1.2425    0.0000 N   0  0  0  0  0  0  0  0  0  0  0  0
    1.4276    2.3222    0.0000 N   0  0  0  0  0  0  0  0  0  0  0  0
    2.8833    1.9602    0.0000 C   0  0  0  0  0  0  0  0  0  0  0  0
    3.9246    3.0399    0.0000 O   0  0  0  0  0  0  0  0  0  0  0  0
    3.2976    0.5186    0.0000 C   0  0  0  0  0  0  0  0  0  0  0  0
    2.2563   -0.5611    0.0000 C   0  0  0  0  0  0  0  0  0  0  0  0
    2.6706   -2.0027    0.0000 C   0  0  0  0  0  0  0  0  0  0  0  0
    4.1263   -2.3647    0.0000 C   0  0  0  0  0  0  0  0  0  0  0  0
    5.1676   -1.2850    0.0000 C   0  0  0  0  0  0  0  0  0  0  0  0
    4.7533    0.1566    0.0000 C   0  0  0  0  0  0  0  0  0  0  0  0
   -2.7377   -1.9964    0.0000 C   0  0  0  0  0  0  0  0  0  0  0  0
   -4.1934   -1.6344    0.0000 N   0  0  0  0  0  0  0  0  0  0  0  0
  1  2  1  0
  2  3  1  0
  3  4  2  0
  4  5  1  0
  5  6  2  0
  6  7  1  0
  7  8  1  0
  8  9  2  0
  9 10  1  0
 10 11  1  0
 11 12  2  0
 11 13  1  0
 13 14  2  0
 14 15  1  0
 15 16  1  0
 16 17  1  0
 17 18  1  0
  6 19  1  0
 19 20  2  0
 20  3  1  0
 14  8  1  0
 18 13  1  0
M  END
$$$$

     RDKit          2D

 19 21  0  0  0  0  0  0  0  0999 V2000
   -4.8584   -2.4952    0.0000 C   0  0  0  0  0  0  0  0  0  0  0  0
   -4.2658   -1.1172    0.0000 N   0  0  0  0  0  0  0  0  0  0  0  0
   -5.1628    0.0850    0.0000 C   0  0  0  0  0  0  0  0  0  0  0  0
   -4.5702    1.4630    0.0000 C   0  0  0  0  0  0  0  0  0  0  0  0
   -3.0806    1.6387    0.0000 C   0  0  0  0  0  0  0  0  0  0  0  0
   -2.1835    0.4365    0.0000 N   0  0  0  0  0  0  0  0  0  0  0  0
   -0.6938    0.6123    0.0000 C   0  0  0  0  0  0  0  0  0  0  0  0
    0.3240   -0.4896    0.0000 N   0  0  0  0  0  0  0  0  0  0  0  0
    1.6864    0.1379    0.0000 C   0  0  0  0  0  0  0  0  0  0  0  0
    3.0644   -0.4547    0.0000 C   0  0  0  0  0  0  0  0  0  0  0  0
    3.2401   -1.9443    0.0000 C   0  0  0  0  0  0  0  0  0  0  0  0
    4.6181   -2.5370    0.0000 N   0  0  0  0  0  0  0  0  0  0  0  0
    2.0379   -2.8414    0.0000 O   0  0  0  0  0  0  0  0  0  0  0  0
    4.2666    0.4424    0.0000 C   0  0  0  0  0  0  0  0  0  0  0  0
    4.0908    1.9320    0.0000 C   0  0  0  0  0  0  0  0  0  0  0  0
    2.7128    2.5247    0.0000 C   0  0  0  0  0  0  0  0  0  0  0  0
    1.5106    1.6276    0.0000 C   0  0  0  0  0  0  0  0  0  0  0  0
    0.0396    1.9208    0.0000 N   0  0  0  0  0  0  0  0  0  0  0  0
   -2.7761   -0.9415    0.0000 C   0  0  0  0  0  0  0  0  0  0  0  0
  1  2  1  0
  2  3  1  0
  3  4  1  0
  4  5  1  0
  5  6  1  0
  6  7  1  0
  7  8  2  0
  8  9  1  0
  9 10  2  0
 10 11  1  0
 11 12  1  0
 11 13  2  0
 10 14  1  0
 14 15  2  0
 15 16  1  0
 16 17  2  0
 17 18  1  0
  6 19  1  0
 19  2  1  0
 18  7  1  0
 17  9  1  0
M  END
$$$$

     RDKit          2D

 27 30  0  0  0  0  0  0  0  0999 V2000
   -1.8880    0.7348    0.0000 O   0  0  0  0  0  0  0  0  0  0  0  0
   -3.0508   -0.2127    0.0000 C   0  0  0  0  0  0  0  0  0  0  0  0
   -2.8118   -1.6935    0.0000 N   0  0  0  0  0  0  0  0  0  0  0  0
   -1.4098   -2.2269    0.0000 C   0  0  0  0  0  0  0  0  0  0  0  0
   -0.1542   -1.4062    0.0000 C   0  0  0  0  0  0  0  0  0  0  0  0
    1.0143   -2.3467    0.0000 C   0  0  0  0  0  0  0  0  0  0  0  0
    2.4620   -1.9541    0.0000 C   0  0  0  0  0  0  0  0  0  0  0  0
    2.8459   -0.5041    0.0000 C   0  0  0  0  0  0  0  0  0  0  0  0
    1.7821    0.5534    0.0000 N   0  0  0  0  0  0  0  0  0  0  0  0
    2.1660    2.0035    0.0000 N   0  0  0  0  0  0  0  0  0  0  0  0
    3.6137    2.3960    0.0000 C   0  0  0  0  0  0  0  0  0  0  0  0
    3.9976    3.8461    0.0000 O   0  0  0  0  0  0  0  0  0  0  0  0
    4.6775    1.3385    0.0000 C   0  0  0  0  0  0  0  0  0  0  0  0
    4.2936   -0.1115    0.0000 C   0  0  0  0  0  0  0  0  0  0  0  0
    5.3575   -1.1690    0.0000 C   0  0  0  0  0  0  0  0  0  0  0  0
    6.8052   -0.7764    0.0000 C   0  0  0  0  0  0  0  0  0  0  0  0
    7.1891    0.6736    0.0000 C   0  0  0  0  0  0  0  0  0  0  0  0
    6.1253    1.7311    0.0000 C   0  0  0  0  0  0  0  0  0  0  0  0
    0.4809   -3.7486    0.0000 C   0  0  0  0  0  0  0  0  0  0  0  0
   -1.0172   -3.6746    0.0000 O   0  0  0  0  0  0  0  0  0  0  0  0
   -4.4528    0.3207    0.0000 C   0  0  0  0  0  0  0  0  0  0  0  0
   -5.5416   -0.7110    0.0000 C   0  0  0  0  0  0  0  0  0  0  0  0
   -7.0272   -0.5030    0.0000 C   0  0  0  0  0  0  0  0  0  0  0  0
   -7.7907    0.7881    0.0000 C   0  0  0  0  0  0  0  0  0  0  0  0
   -7.2574    2.1901    0.0000 N   0  0  0  0  0  0  0  0  0  0  0  0
   -5.8287    2.6472    0.0000 C   0  0  0  0  0  0  0  0  0  0  0  0
   -4.5806    1.8152    0.0000 C   0  0  0  0  0  0  0  0  0  0  0  0
  1  2  2  0
  2  3  1  0
  3  4  1  0
  4  5  2  0
  5  6  1  0
  6  7  1  0
  7  8  1  0
  8  9  2  0
  9 10  1  0
 10 11  1  0
 11 12  2  0
 11 13  1  0
 13 14  2  0
 14 15  1  0
 15 16  1  0
 16 17  1  0
 17 18  1  0
  6 19  2  0
 19 20  1  0
  2 21  1  0
 21 22  1  0
 22 23  1  0
 23 24  1  0
 24 25  1  0
 25 26  1  0
 26 27  1  0
 20  4  1  0
 27 21  1  0
 14  8  1  0
 18 13  1  0
M  END
$$$$

     RDKit          2D

 18 20  0  0  0  0  0  0  0  0999 V2000
   -4.1128   -0.4163    0.0000 C   0  0  0  0  0  0  0  0  0  0  0  0
   -3.4970    0.0899    0.0000 C   0  0  0  0  0  0  0  0  0  0  0  0
   -2.2924   -0.8039    0.0000 C   0  0  0  0  0  0  0  0  0  0  0  0
   -0.9160   -0.2076    0.0000 C   0  0  0  0  0  0  0  0  0  0  0  0
    0.3754   -0.9706    0.0000 N   0  0  0  0  0  0  0  0  0  0  0  0
    1.5002    0.0219    0.0000 C   0  0  0  0  0  0  0  0  0  0  0  0
    2.9903   -0.1499    0.0000 C   0  0  0  0  0  0  0  0  0  0  0  0
    3.5866   -1.5263    0.0000 C   0  0  0  0  0  0  0  0  0  0  0  0
    5.0768   -1.6980    0.0000 N   0  0  0  0  0  0  0  0  0  0  0  0
    2.6928   -2.7309    0.0000 O   0  0  0  0  0  0  0  0  0  0  0  0
    3.8841    1.0547    0.0000 C   0  0  0  0  0  0  0  0  0  0  0  0
    3.2878    2.4311    0.0000 C   0  0  0  0  0  0  0  0  0  0  0  0
    1.7977    2.6029    0.0000 C   0  0  0  0  0  0  0  0  0  0  0  0
    0.9038    1.3983    0.0000 C   0  0  0  0  0  0  0  0  0  0  0  0
   -0.5894    1.2564    0.0000 N   0  0  0  0  0  0  0  0  0  0  0  0
   -4.3908   -1.1147    0.0000 C   0  0  0  0  0  0  0  0  0  0  0  0
   -5.5954   -0.2209    0.0000 C   0  0  0  0  0  0  0  0  0  0  0  0
   -4.7016    0.9837    0.0000 N   0  0  0  0  0  0  0  0  0  0  0  0
  1  2  1  0
  2  3  1  0
  3  4  1  0
  4  5  2  0
  5  6  1  0
  6  7  2  0
  7  8  1  0
  8  9  1  0
  8 10  2  0
  7 11  1  0
 11 12  2  0
 12 13  1  0
 13 14  2  0
 14 15  1  0
  2 16  1  0
 16 17  1  0
 17 18  1  0
 18  2  1  0
 15  4  1  0
 14  6  1  0
M  END
$$$$

     RDKit          2D

 16 18  0  0  0  0  0  0  0  0999 V2000
    4.1255   -0.5313    0.0000 O   0  0  0  0  0  0  0  0  0  0  0  0
    2.7945    0.1604    0.0000 C   0  0  0  0  0  0  0  0  0  0  0  0
    2.7280    1.6589    0.0000 N   0  0  0  0  0  0  0  0  0  0  0  0
    1.3970    2.3506    0.0000 C   0  0  0  0  0  0  0  0  0  0  0  0
    0.1325    1.5438    0.0000 N   0  0  0  0  0  0  0  0  0  0  0  0
   -1.0112    2.5143    0.0000 C   0  0  0  0  0  0  0  0  0  0  0  0
   -2.4831    2.2252    0.0000 C   0  0  0  0  0  0  0  0  0  0  0  0
   -3.1748    0.8942    0.0000 C   0  0  0  0  0  0  0  0  0  0  0  0
   -2.5654   -0.4764    0.0000 C   0  0  0  0  0  0  0  0  0  0  0  0
   -3.5359   -1.6202    0.0000 F   0  0  0  0  0  0  0  0  0  0  0  0
   -1.0655   -0.7616    0.0000 C   0  0  0  0  0  0  0  0  0  0  0  0
   -0.9990   -2.2601    0.0000 C   0  0  0  0  0  0  0  0  0  0  0  0
    0.3320   -2.9518    0.0000 C   0  0  0  0  0  0  0  0  0  0  0  0
    1.5965   -2.1450    0.0000 C   0  0  0  0  0  0  0  0  0  0  0  0
    1.5300   -0.6464    0.0000 C   0  0  0  0  0  0  0  0  0  0  0  0
    0.1990    0.0453    0.0000 C   0  0  0  0  0  0  0  0  0  0  0  0
  1  2  2  0
  2  3  1  0
  3  4  1  0
  4  5  1  0
  5  6  1  0
  6  7  2  0
  7  8  1  0
  8  9  2  0
  9 10  1  0
  9 11  1  0
 11 12  1  0
 12 13  2  0
 13 14  1  0
 14 15  2  0
 15 16  1  0
 15  2  1  0
 16  5  1  0
 16 11  2  0
M  END
$$$$

     RDKit          2D

 28 31  0  0  0  0  0  0  0  0999 V2000
   -2.3463    4.2500    0.0000 C   0  0  0  0  0  0  0  0  0  0  0  0
   -3.5715    3.3845    0.0000 S   0  0  0  0  0  0  0  0  0  0  0  0
   -4.9336    4.0128    0.0000 O   0  0  0  0  0  0  0  0  0  0  0  0
   -3.4345    1.8908    0.0000 C   0  0  0  0  0  0  0  0  0  0  0  0
   -2.0725    1.2625    0.0000 C   0  0  0  0  0  0  0  0  0  0  0  0
   -1.9355   -0.2312    0.0000 C   0  0  0  0  0  0  0  0  0  0  0  0
   -3.1607   -1.0967    0.0000 C   0  0  0  0  0  0  0  0  0  0  0  0
   -3.0237   -2.5904    0.0000 N   0  0  0  0  0  0  0  0  0  0  0  0
   -1.6617   -3.2187    0.0000 C   0  0  0  0  0  0  0  0  0  0  0  0
   -1.5247   -4.7124    0.0000 C   0  0  0  0  0  0  0  0  0  0  0  0
   -0.1626   -5.3407    0.0000 C   0  0  0  0  0  0  0  0  0  0  0  0
    1.0625   -4.4753    0.0000 C   0  0  0  0  0  0  0  0  0  0  0  0
    0.9256   -2.9815    0.0000 C   0  0  0  0  0  0  0  0  0  0  0  0
    2.1507   -2.1161    0.0000 C   0  0  0  0  0  0  0  0  0  0  0  0
    2.0138   -0.6223    0.0000 C   0  0  0  0  0  0  0  0  0  0  0  0
    0.6517    0.0059    0.0000 N   0  0  0  0  0  0  0  0  0  0  0  0
    0.5148    1.4997    0.0000 N   0  0  0  0  0  0  0  0  0  0  0  0
    1.7399    2.3651    0.0000 C   0  0  0  0  0  0  0  0  0  0  0  0
    1.6030    3.8589    0.0000 O   0  0  0  0  0  0  0  0  0  0  0  0
    3.1020    1.7369    0.0000 C   0  0  0  0  0  0  0  0  0  0  0  0
    3.2389    0.2431    0.0000 C   0  0  0  0  0  0  0  0  0  0  0  0
    4.6010   -0.3851    0.0000 C   0  0  0  0  0  0  0  0  0  0  0  0
    5.8262    0.4803    0.0000 C   0  0  0  0  0  0  0  0  0  0  0  0
    5.6892    1.9740    0.0000 C   0  0  0  0  0  0  0  0  0  0  0  0
    4.3271    2.6023    0.0000 C   0  0  0  0  0  0  0  0  0  0  0  0
   -0.4365   -2.3532    0.0000 C   0  0  0  0  0  0  0  0  0  0  0  0
   -4.5228   -0.4684    0.0000 C   0  0  0  0  0  0  0  0  0  0  0  0
   -4.6597    1.0253    0.0000 C   0  0  0  0  0  0  0  0  0  0  0  0
  1  2  1  0
  2  3  2  0
  2  4  1  0
  4  5  2  0
  5  6  1  0
  6  7  2  0
  7  8  1  0
  8  9  1  0
  9 10  2  0
 10 11  1  0
 11 12  2  0
 12 13  1  0
 13 14  1  0
 14 15  1  0
 15 16  2  0
 16 17  1  0
 17 18  1  0
 18 19  2  0
 18 20  1  0
 20 21  2  0
 21 22  1  0
 22 23  1  0
 23 24  1  0
 24 25  1  0
 13 26  2  0
  7 27  1  0
 27 28  2  0
 28  4  1  0
 26  9  1  0
 21 15  1  0
 25 20  1  0
M  END
$$$$

     RDKit          2D

 33 37  0  0  0  0  0  0  0  0999 V2000
   -1.3143   -3.5001    0.0000 O   0  0  0  0  0  0  0  0  0  0  0  0
   -1.6419   -2.0363    0.0000 C   0  0  0  0  0  0  0  0  0  0  0  0
   -0.5380   -1.0207    0.0000 C   0  0  0  0  0  0  0  0  0  0  0  0
    0.8935   -1.4689    0.0000 C   0  0  0  0  0  0  0  0  0  0  0  0
    1.9974   -0.4533    0.0000 C   0  0  0  0  0  0  0  0  0  0  0  0
    3.4288   -0.9015    0.0000 C   0  0  0  0  0  0  0  0  0  0  0  0
    4.5327    0.1141    0.0000 C   0  0  0  0  0  0  0  0  0  0  0  0
    4.2051    1.5778    0.0000 N   0  0  0  0  0  0  0  0  0  0  0  0
    5.3090    2.5934    0.0000 N   0  0  0  0  0  0  0  0  0  0  0  0
    6.7405    2.1452    0.0000 C   0  0  0  0  0  0  0  0  0  0  0  0
    7.8444    3.1608    0.0000 O   0  0  0  0  0  0  0  0  0  0  0  0
    7.0681    0.6814    0.0000 C   0  0  0  0  0  0  0  0  0  0  0  0
    5.9642   -0.3342    0.0000 C   0  0  0  0  0  0  0  0  0  0  0  0
    6.2918   -1.7980    0.0000 C   0  0  0  0  0  0  0  0  0  0  0  0
    7.7232   -2.2462    0.0000 C   0  0  0  0  0  0  0  0  0  0  0  0
    8.8271   -1.2306    0.0000 C   0  0  0  0  0  0  0  0  0  0  0  0
    8.4996    0.2332    0.0000 C   0  0  0  0  0  0  0  0  0  0  0  0
    1.6698    1.0105    0.0000 C   0  0  0  0  0  0  0  0  0  0  0  0
    0.2383    1.4587    0.0000 C   0  0  0  0  0  0  0  0  0  0  0  0
   -0.8656    0.4431    0.0000 C   0  0  0  0  0  0  0  0  0  0  0  0
   -2.2971    0.8913    0.0000 F   0  0  0  0  0  0  0  0  0  0  0  0
   -3.0734   -1.5881    0.0000 N   0  0  0  0  0  0  0  0  0  0  0  0
   -3.4010   -0.1243    0.0000 C   0  0  0  0  0  0  0  0  0  0  0  0
   -4.8324    0.3239    0.0000 C   0  0  0  0  0  0  0  0  0  0  0  0
   -5.9363   -0.6916    0.0000 N   0  0  0  0  0  0  0  0  0  0  0  0
   -7.3678   -0.2434    0.0000 C   0  0  0  0  0  0  0  0  0  0  0  0
   -8.4717   -1.2590    0.0000 O   0  0  0  0  0  0  0  0  0  0  0  0
   -7.6954    1.2204    0.0000 C   0  0  0  0  0  0  0  0  0  0  0  0
   -6.8919    2.4871    0.0000 C   0  0  0  0  0  0  0  0  0  0  0  0
   -8.1586    3.2905    0.0000 C   0  0  0  0  0  0  0  0  0  0  0  0
   -8.9621    2.0238    0.0000 C   0  0  0  0  0  0  0  0  0  0  0  0
   -5.6088   -2.1554    0.0000 C   0  0  0  0  0  0  0  0  0  0  0  0
   -4.1773   -2.6037    0.0000 C   0  0  0  0  0  0  0  0  0  0  0  0
  1  2  2  0
  2  3  1  0
  3  4  2  0
  4  5  1  0
  5  6  1  0
  6  7  1  0
  7  8  2  0
  8  9  1  0
  9 10  1  0
 10 11  2  0
 10 12  1  0
 12 13  2  0
 13 14  1  0
 14 15  1  0
 15 16  1  0
 16 17  1  0
  5 18  2  0
 18 19  1  0
 19 20  2  0
 20 21  1  0
  2 22  1  0
 22 23  1  0
 23 24  1  0
 24 25  1  0
 25 26  1  0
 26 27  2  0
 26 28  1  0
 28 29  1  0
 29 30  1  0
 30 31  1  0
 25 32  1  0
 32 33  1  0
 20  3  1  0
 33 22  1  0
 13  7  1  0
 31 28  1  0
 17 12  1  0
M  END
$$$$

     RDKit          2D

 33 37  0  0  0  0  0  0  0  0999 V2000
   -8.4845    4.0411    0.0000 C   0  0  0  0  0  0  0  0  0  0  0  0
   -8.6359    2.5487    0.0000 N   0  0  0  0  0  0  0  0  0  0  0  0
  -10.0041    1.9337    0.0000 C   0  0  0  0  0  0  0  0  0  0  0  0
   -7.4193    1.6714    0.0000 C   0  0  0  0  0  0  0  0  0  0  0  0
   -6.0511    2.2864    0.0000 C   0  0  0  0  0  0  0  0  0  0  0  0
   -4.8345    1.4090    0.0000 C   0  0  0  0  0  0  0  0  0  0  0  0
   -4.9859   -0.0833    0.0000 C   0  0  0  0  0  0  0  0  0  0  0  0
   -3.7693   -0.9606    0.0000 N   0  0  0  0  0  0  0  0  0  0  0  0
   -3.9207   -2.4530    0.0000 C   0  0  0  0  0  0  0  0  0  0  0  0
   -2.7041   -3.3303    0.0000 C   0  0  0  0  0  0  0  0  0  0  0  0
   -1.3360   -2.7153    0.0000 N   0  0  0  0  0  0  0  0  0  0  0  0
   -0.1193   -3.5927    0.0000 C   0  0  0  0  0  0  0  0  0  0  0  0
   -0.2708   -5.0850    0.0000 O   0  0  0  0  0  0  0  0  0  0  0  0
    1.2488   -2.9777    0.0000 C   0  0  0  0  0  0  0  0  0  0  0  0
    2.6511   -3.5102    0.0000 C   0  0  0  0  0  0  0  0  0  0  0  0
    3.1837   -2.1079    0.0000 C   0  0  0  0  0  0  0  0  0  0  0  0
    4.5518   -1.4929    0.0000 C   0  0  0  0  0  0  0  0  0  0  0  0
    4.7033   -0.0006    0.0000 C   0  0  0  0  0  0  0  0  0  0  0  0
    3.4866    0.8767    0.0000 N   0  0  0  0  0  0  0  0  0  0  0  0
    3.6381    2.3691    0.0000 N   0  0  0  0  0  0  0  0  0  0  0  0
    5.0062    2.9841    0.0000 C   0  0  0  0  0  0  0  0  0  0  0  0
    5.1577    4.4764    0.0000 O   0  0  0  0  0  0  0  0  0  0  0  0
    6.2229    2.1067    0.0000 C   0  0  0  0  0  0  0  0  0  0  0  0
    6.0714    0.6144    0.0000 C   0  0  0  0  0  0  0  0  0  0  0  0
    7.2881   -0.2630    0.0000 C   0  0  0  0  0  0  0  0  0  0  0  0
    8.6562    0.3520    0.0000 C   0  0  0  0  0  0  0  0  0  0  0  0
    8.8077    1.8444    0.0000 C   0  0  0  0  0  0  0  0  0  0  0  0
    7.5910    2.7217    0.0000 C   0  0  0  0  0  0  0  0  0  0  0  0
    1.7814   -1.5754    0.0000 C   0  0  0  0  0  0  0  0  0  0  0  0
   -1.1845   -1.2230    0.0000 C   0  0  0  0  0  0  0  0  0  0  0  0
   -2.4012   -0.3456    0.0000 C   0  0  0  0  0  0  0  0  0  0  0  0
   -6.3541   -0.6983    0.0000 C   0  0  0  0  0  0  0  0  0  0  0  0
   -7.5707    0.1791    0.0000 C   0  0  0  0  0  0  0  0  0  0  0  0
  1  2  1  0
  2  3  1  0
  2  4  1  0
  4  5  2  0
  5  6  1  0
  6  7  2  0
  7  8  1  0
  8  9  1  0
  9 10  1  0
 10 11  1  0
 11 12  1  0
 12 13  2  0
 12 14  1  0
 14 15  2  0
 15 16  1  0
 16 17  1  0
 17 18  1  0
 18 19  2  0
 19 20  1  0
 20 21  1  0
 21 22  2  0
 21 23  1  0
 23 24  2  0
 24 25  1  0
 25 26  1  0
 26 27  1  0
 27 28  1  0
 16 29  2  0
 11 30  1  0
 30 31  1  0
  7 32  1  0
 32 33  2  0
 33  4  1  0
 31  8  1  0
 29 14  1  0
 24 18  1  0
 28 23  1  0
M  END
$$$$

     RDKit          2D

 35 39  0  0  0  0  0  0  0  0999 V2000
   -7.9167   -1.8704    0.0000 O   0  0  0  0  0  0  0  0  0  0  0  0
   -6.8664   -0.7995    0.0000 C   0  0  0  0  0  0  0  0  0  0  0  0
   -7.2687    0.6456    0.0000 C   0  0  0  0  0  0  0  0  0  0  0  0
   -6.2184    1.7165    0.0000 C   0  0  0  0  0  0  0  0  0  0  0  0
   -6.6207    3.1615    0.0000 C   0  0  0  0  0  0  0  0  0  0  0  0
   -8.0733    3.5356    0.0000 C   0  0  0  0  0  0  0  0  0  0  0  0
   -9.1236    2.4647    0.0000 C   0  0  0  0  0  0  0  0  0  0  0  0
   -8.7213    1.0197    0.0000 N   0  0  0  0  0  0  0  0  0  0  0  0
   -5.4138   -1.1736    0.0000 N   0  0  0  0  0  0  0  0  0  0  0  0
   -5.0115   -2.6186    0.0000 C   0  0  0  0  0  0  0  0  0  0  0  0
   -3.5589   -2.9927    0.0000 C   0  0  0  0  0  0  0  0  0  0  0  0
   -2.5086   -1.9218    0.0000 N   0  0  0  0  0  0  0  0  0  0  0  0
   -1.0560   -2.2959    0.0000 C   0  0  0  0  0  0  0  0  0  0  0  0
   -0.6537   -3.7410    0.0000 O   0  0  0  0  0  0  0  0  0  0  0  0
   -0.0057   -1.2250    0.0000 C   0  0  0  0  0  0  0  0  0  0  0  0
    1.4469   -1.5991    0.0000 C   0  0  0  0  0  0  0  0  0  0  0  0
    2.4972   -0.5282    0.0000 C   0  0  0  0  0  0  0  0  0  0  0  0
    3.9498   -0.9023    0.0000 C   0  0  0  0  0  0  0  0  0  0  0  0
    5.0001    0.1687    0.0000 C   0  0  0  0  0  0  0  0  0  0  0  0
    4.5978    1.6137    0.0000 N   0  0  0  0  0  0  0  0  0  0  0  0
    5.6480    2.6846    0.0000 N   0  0  0  0  0  0  0  0  0  0  0  0
    7.1006    2.3105    0.0000 C   0  0  0  0  0  0  0  0  0  0  0  0
    8.1509    3.3815    0.0000 O   0  0  0  0  0  0  0  0  0  0  0  0
    7.5030    0.8655    0.0000 C   0  0  0  0  0  0  0  0  0  0  0  0
    6.4527   -0.2054    0.0000 C   0  0  0  0  0  0  0  0  0  0  0  0
    6.8550   -1.6505    0.0000 C   0  0  0  0  0  0  0  0  0  0  0  0
    8.3076   -2.0246    0.0000 C   0  0  0  0  0  0  0  0  0  0  0  0
    9.3579   -0.9537    0.0000 C   0  0  0  0  0  0  0  0  0  0  0  0
    8.9556    0.4914    0.0000 C   0  0  0  0  0  0  0  0  0  0  0  0
    2.0949    0.9169    0.0000 C   0  0  0  0  0  0  0  0  0  0  0  0
    0.6423    1.2910    0.0000 C   0  0  0  0  0  0  0  0  0  0  0  0
   -0.4080    0.2201    0.0000 C   0  0  0  0  0  0  0  0  0  0  0  0
   -1.8606    0.5942    0.0000 F   0  0  0  0  0  0  0  0  0  0  0  0
   -2.9109   -0.4768    0.0000 C   0  0  0  0  0  0  0  0  0  0  0  0
   -4.3635   -0.1027    0.0000 C   0  0  0  0  0  0  0  0  0  0  0  0
  1  2  2  0
  2  3  1  0
  3  4  2  0
  4  5  1  0
  5  6  2  0
  6  7  1  0
  7  8  2  0
  2  9  1  0
  9 10  1  0
 10 11  1  0
 11 12  1  0
 12 13  1  0
 13 14  2  0
 13 15  1  0
 15 16  2  0
 16 17  1  0
 17 18  1  0
 18 19  1  0
 19 20  2  0
 20 21  1  0
 21 22  1  0
 22 23  2  0
 22 24  1  0
 24 25  2  0
 25 26  1  0
 26 27  1  0
 27 28  1  0
 28 29  1  0
 17 30  2  0
 30 31  1  0
 31 32  2  0
 32 33  1  0
 12 34  1  0
 34 35  1  0
  8  3  1  0
 35  9  1  0
 32 15  1  0
 25 19  1  0
 29 24  1  0
M  END
$$$$

     RDKit          2D

 18 20  0  0  0  0  0  0  0  0999 V2000
    3.7172   -2.7195    0.0000 O   0  0  0  0  0  0  0  0  0  0  0  0
    2.5345   -1.7968    0.0000 C   0  0  0  0  0  0  0  0  0  0  0  0
    1.1441   -2.3597    0.0000 N   0  0  0  0  0  0  0  0  0  0  0  0
   -0.0385   -1.4370    0.0000 N   0  0  0  0  0  0  0  0  0  0  0  0
    0.1692    0.0486    0.0000 C   0  0  0  0  0  0  0  0  0  0  0  0
   -1.0134    0.9713    0.0000 C   0  0  0  0  0  0  0  0  0  0  0  0
   -2.4038    0.4084    0.0000 C   0  0  0  0  0  0  0  0  0  0  0  0
   -2.7657   -1.0473    0.0000 C   0  0  0  0  0  0  0  0  0  0  0  0
   -4.2620   -1.1529    0.0000 C   0  0  0  0  0  0  0  0  0  0  0  0
   -4.8248    0.2374    0.0000 C   0  0  0  0  0  0  0  0  0  0  0  0
   -6.2805    0.5993    0.0000 F   0  0  0  0  0  0  0  0  0  0  0  0
   -3.6764    1.2024    0.0000 C   0  0  0  0  0  0  0  0  0  0  0  0
    1.5596    0.6114    0.0000 C   0  0  0  0  0  0  0  0  0  0  0  0
    2.7423   -0.3113    0.0000 C   0  0  0  0  0  0  0  0  0  0  0  0
    4.1327    0.2516    0.0000 C   0  0  0  0  0  0  0  0  0  0  0  0
    4.3404    1.7371    0.0000 C   0  0  0  0  0  0  0  0  0  0  0  0
    3.1578    2.6598    0.0000 C   0  0  0  0  0  0  0  0  0  0  0  0
    1.7674    2.0970    0.0000 C   0  0  0  0  0  0  0  0  0  0  0  0
  1  2  2  0
  2  3  1  0
  3  4  1  0
  4  5  2  0
  5  6  1  0
  6  7  1  0
  7  8  2  0
  8  9  1  0
  9 10  2  0
 10 11  1  0
 10 12  1  0
  5 13  1  0
 13 14  2  0
 14 15  1  0
 15 16  1  0
 16 17  1  0
 17 18  1  0
 14  2  1  0
 12  7  1  0
 18 13  1  0
M  END
$$$$

     RDKit          2D

 28 31  0  0  0  0  0  0  0  0999 V2000
   -5.5765    4.9999    0.0000 C   0  0  0  0  0  0  0  0  0  0  0  0
   -4.8584    3.6830    0.0000 C   0  0  0  0  0  0  0  0  0  0  0  0
   -5.6399    2.4026    0.0000 C   0  0  0  0  0  0  0  0  0  0  0  0
   -4.9218    1.0857    0.0000 N   0  0  0  0  0  0  0  0  0  0  0  0
   -5.7968   -0.1327    0.0000 C   0  0  0  0  0  0  0  0  0  0  0  0
   -5.3897   -1.5764    0.0000 C   0  0  0  0  0  0  0  0  0  0  0  0
   -4.0072   -2.1583    0.0000 C   0  0  0  0  0  0  0  0  0  0  0  0
   -2.6903   -1.4402    0.0000 N   0  0  0  0  0  0  0  0  0  0  0  0
   -1.4719   -2.3152    0.0000 C   0  0  0  0  0  0  0  0  0  0  0  0
   -1.6204   -3.8078    0.0000 C   0  0  0  0  0  0  0  0  0  0  0  0
   -0.4021   -4.6828    0.0000 C   0  0  0  0  0  0  0  0  0  0  0  0
    0.9649   -4.0651    0.0000 C   0  0  0  0  0  0  0  0  0  0  0  0
    1.1134   -2.5725    0.0000 C   0  0  0  0  0  0  0  0  0  0  0  0
    2.4803   -1.9548    0.0000 C   0  0  0  0  0  0  0  0  0  0  0  0
    2.6289   -0.4622    0.0000 C   0  0  0  0  0  0  0  0  0  0  0  0
    1.4105    0.4128    0.0000 N   0  0  0  0  0  0  0  0  0  0  0  0
    1.5591    1.9054    0.0000 N   0  0  0  0  0  0  0  0  0  0  0  0
    2.9260    2.5231    0.0000 C   0  0  0  0  0  0  0  0  0  0  0  0
    3.0746    4.0157    0.0000 O   0  0  0  0  0  0  0  0  0  0  0  0
    4.1444    1.6481    0.0000 C   0  0  0  0  0  0  0  0  0  0  0  0
    3.9958    0.1555    0.0000 C   0  0  0  0  0  0  0  0  0  0  0  0
    5.2142   -0.7195    0.0000 C   0  0  0  0  0  0  0  0  0  0  0  0
    6.5811   -0.1018    0.0000 C   0  0  0  0  0  0  0  0  0  0  0  0
    6.7297    1.3908    0.0000 C   0  0  0  0  0  0  0  0  0  0  0  0
    5.5113    2.2658    0.0000 C   0  0  0  0  0  0  0  0  0  0  0  0
   -0.1050   -1.6975    0.0000 C   0  0  0  0  0  0  0  0  0  0  0  0
   -2.4306    0.0371    0.0000 C   0  0  0  0  0  0  0  0  0  0  0  0
   -3.4237    1.1613    0.0000 C   0  0  0  0  0  0  0  0  0  0  0  0
  1  2  1  0
  2  3  1  0
  3  4  1  0
  4  5  1  0
  5  6  1  0
  6  7  1  0
  7  8  1  0
  8  9  1  0
  9 10  2  0
 10 11  1  0
 11 12  2  0
 12 13  1  0
 13 14  1  0
 14 15  1  0
 15 16  2  0
 16 17  1  0
 17 18  1  0
 18 19  2  0
 18 20  1  0
 20 21  2  0
 21 22  1  0
 22 23  1  0
 23 24  1  0
 24 25  1  0
 13 26  2  0
  8 27  1  0
 27 28  1  0
 28  4  1  0
 26  9  1  0
 21 15  1  0
 25 20  1  0
M  END
$$$$

     RDKit          2D

 30 33  0  0  0  0  0  0  0  0999 V2000
   -2.1902    5.5736    0.0000 C   0  0  0  0  0  0  0  0  0  0  0  0
   -2.6410    4.1429    0.0000 O   0  0  0  0  0  0  0  0  0  0  0  0
   -1.6273    3.0373    0.0000 C   0  0  0  0  0  0  0  0  0  0  0  0
   -0.1630    3.3623    0.0000 C   0  0  0  0  0  0  0  0  0  0  0  0
    0.8507    2.2566    0.0000 C   0  0  0  0  0  0  0  0  0  0  0  0
    0.4000    0.8259    0.0000 C   0  0  0  0  0  0  0  0  0  0  0  0
    1.4136   -0.2798    0.0000 C   0  0  0  0  0  0  0  0  0  0  0  0
    2.8780    0.0452    0.0000 C   0  0  0  0  0  0  0  0  0  0  0  0
    3.3287    1.4759    0.0000 N   0  0  0  0  0  0  0  0  0  0  0  0
    4.7931    1.8009    0.0000 N   0  0  0  0  0  0  0  0  0  0  0  0
    5.8067    0.6952    0.0000 C   0  0  0  0  0  0  0  0  0  0  0  0
    7.2711    1.0202    0.0000 O   0  0  0  0  0  0  0  0  0  0  0  0
    5.3560   -0.7355    0.0000 C   0  0  0  0  0  0  0  0  0  0  0  0
    3.8916   -1.0605    0.0000 C   0  0  0  0  0  0  0  0  0  0  0  0
    3.4409   -2.4911    0.0000 N   0  0  0  0  0  0  0  0  0  0  0  0
    4.4545   -3.5968    0.0000 C   0  0  0  0  0  0  0  0  0  0  0  0
    5.9189   -3.2718    0.0000 C   0  0  0  0  0  0  0  0  0  0  0  0
    6.3696   -1.8411    0.0000 C   0  0  0  0  0  0  0  0  0  0  0  0
   -1.0644    0.5009    0.0000 C   0  0  0  0  0  0  0  0  0  0  0  0
   -2.0781    1.6066    0.0000 C   0  0  0  0  0  0  0  0  0  0  0  0
   -3.5424    1.2816    0.0000 C   0  0  0  0  0  0  0  0  0  0  0  0
   -4.5561    2.3873    0.0000 O   0  0  0  0  0  0  0  0  0  0  0  0
   -3.9932   -0.1491    0.0000 N   0  0  0  0  0  0  0  0  0  0  0  0
   -2.8997   -1.1759    0.0000 C   0  0  0  0  0  0  0  0  0  0  0  0
   -3.0208   -2.6710    0.0000 C   0  0  0  0  0  0  0  0  0  0  0  0
   -4.2652   -3.5086    0.0000 C   0  0  0  0  0  0  0  0  0  0  0  0
   -5.6959   -3.0578    0.0000 N   0  0  0  0  0  0  0  0  0  0  0  0
   -6.7227   -4.1513    0.0000 O   0  0  0  0  0  0  0  0  0  0  0  0
   -6.2355   -1.6583    0.0000 C   0  0  0  0  0  0  0  0  0  0  0  0
   -5.4777   -0.3638    0.0000 C   0  0  0  0  0  0  0  0  0  0  0  0
  1  2  1  0
  2  3  1  0
  3  4  2  0
  4  5  1  0
  5  6  2  0
  6  7  1  0
  7  8  1  0
  8  9  2  0
  9 10  1  0
 10 11  1  0
 11 12  2  0
 11 13  1  0
 13 14  2  0
 14 15  1  0
 15 16  1  0
 16 17  1  0
 17 18  1  0
  6 19  1  0
 19 20  2  0
 20 21  1  0
 21 22  2  0
 21 23  1  0
 23 24  1  0
 24 25  1  0
 25 26  1  0
 26 27  1  0
 27 28  1  0
 27 29  1  0
 29 30  1  0
 20  3  1  0
 30 23  1  0
 14  8  1  0
 18 13  1  0
M  END
$$$$

     RDKit          2D

 35 38  0  0  0  0  0  0  0  0999 V2000
   -7.0569    3.5853    0.0000 C   0  0  0  0  0  0  0  0  0  0  0  0
   -6.9218    2.0914    0.0000 C   0  0  0  0  0  0  0  0  0  0  0  0
   -5.5605    1.4615    0.0000 C   0  0  0  0  0  0  0  0  0  0  0  0
   -5.4254   -0.0324    0.0000 N   0  0  0  0  0  0  0  0  0  0  0  0
   -6.6516   -0.8964    0.0000 C   0  0  0  0  0  0  0  0  0  0  0  0
   -8.0129   -0.2664    0.0000 C   0  0  0  0  0  0  0  0  0  0  0  0
   -4.0641   -0.6624    0.0000 C   0  0  0  0  0  0  0  0  0  0  0  0
   -2.8379    0.2015    0.0000 C   0  0  0  0  0  0  0  0  0  0  0  0
   -2.9730    1.6955    0.0000 C   0  0  0  0  0  0  0  0  0  0  0  0
   -1.4766   -0.4284    0.0000 N   0  0  0  0  0  0  0  0  0  0  0  0
   -1.3415   -1.9223    0.0000 C   0  0  0  0  0  0  0  0  0  0  0  0
   -2.3023   -3.0742    0.0000 C   0  0  0  0  0  0  0  0  0  0  0  0
   -1.1505   -4.0350    0.0000 C   0  0  0  0  0  0  0  0  0  0  0  0
   -0.1896   -2.8831    0.0000 C   0  0  0  0  0  0  0  0  0  0  0  0
   -0.5370   -3.6007    0.0000 C   0  0  0  0  0  0  0  0  0  0  0  0
    0.9622   -3.8440    0.0000 C   0  0  0  0  0  0  0  0  0  0  0  0
    0.7061   -5.3219    0.0000 O   0  0  0  0  0  0  0  0  0  0  0  0
    2.3703   -3.3268    0.0000 C   0  0  0  0  0  0  0  0  0  0  0  0
    3.5221   -4.2877    0.0000 C   0  0  0  0  0  0  0  0  0  0  0  0
    4.9302   -3.7705    0.0000 C   0  0  0  0  0  0  0  0  0  0  0  0
    5.1863   -2.2926    0.0000 C   0  0  0  0  0  0  0  0  0  0  0  0
    4.0345   -1.3317    0.0000 C   0  0  0  0  0  0  0  0  0  0  0  0
    4.2906    0.1462    0.0000 C   0  0  0  0  0  0  0  0  0  0  0  0
    3.1388    1.1071    0.0000 C   0  0  0  0  0  0  0  0  0  0  0  0
    1.7307    0.5899    0.0000 N   0  0  0  0  0  0  0  0  0  0  0  0
    0.5789    1.5508    0.0000 N   0  0  0  0  0  0  0  0  0  0  0  0
    0.8350    3.0287    0.0000 C   0  0  0  0  0  0  0  0  0  0  0  0
   -0.3169    3.9895    0.0000 O   0  0  0  0  0  0  0  0  0  0  0  0
    2.2431    3.5459    0.0000 C   0  0  0  0  0  0  0  0  0  0  0  0
    3.3949    2.5850    0.0000 C   0  0  0  0  0  0  0  0  0  0  0  0
    4.8030    3.1022    0.0000 C   0  0  0  0  0  0  0  0  0  0  0  0
    5.0591    4.5801    0.0000 C   0  0  0  0  0  0  0  0  0  0  0  0
    3.9073    5.5410    0.0000 C   0  0  0  0  0  0  0  0  0  0  0  0
    2.4992    5.0238    0.0000 C   0  0  0  0  0  0  0  0  0  0  0  0
    2.6264   -1.8489    0.0000 C   0  0  0  0  0  0  0  0  0  0  0  0
  1  2  1  0
  2  3  1  0
  3  4  1  0
  4  5  1  0
  5  6  1  0
  4  7  1  0
  7  8  1  0
  8  9  1  0
  8 10  1  0
 10 11  1  0
 11 12  1  0
 12 13  1  0
 13 14  1  0
 14 15  1  0
 14 16  1  0
 16 17  2  0
 16 18  1  0
 18 19  2  0
 19 20  1  0
 20 21  2  0
 21 22  1  0
 22 23  1  0
 23 24  1  0
 24 25  2  0
 25 26  1  0
 26 27  1  0
 27 28  2  0
 27 29  1  0
 29 30  2  0
 30 31  1  0
 31 32  1  0
 32 33  1  0
 33 34  1  0
 22 35  2  0
 14 11  1  0
 35 18  1  0
 30 24  1  0
 34 29  1  0
M  END
$$$$

     RDKit          2D

 19 21  0  0  0  0  0  0  0  0999 V2000
   -2.7842    2.0443    0.0000 C   0  0  0  0  0  0  0  0  0  0  0  0
   -1.9964    0.7678    0.0000 C   0  0  0  0  0  0  0  0  0  0  0  0
   -2.7079   -0.5527    0.0000 N   0  0  0  0  0  0  0  0  0  0  0  0
   -4.2073   -0.5968    0.0000 C   0  0  0  0  0  0  0  0  0  0  0  0
   -5.2986    0.4323    0.0000 C   0  0  0  0  0  0  0  0  0  0  0  0
   -6.3277   -0.6591    0.0000 C   0  0  0  0  0  0  0  0  0  0  0  0
   -5.2363   -1.6881    0.0000 C   0  0  0  0  0  0  0  0  0  0  0  0
   -0.4970    0.8119    0.0000 C   0  0  0  0  0  0  0  0  0  0  0  0
    0.4199   -0.3752    0.0000 N   0  0  0  0  0  0  0  0  0  0  0  0
    1.8323    0.1300    0.0000 C   0  0  0  0  0  0  0  0  0  0  0  0
    3.1528   -0.5815    0.0000 C   0  0  0  0  0  0  0  0  0  0  0  0
    3.1968   -2.0809    0.0000 C   0  0  0  0  0  0  0  0  0  0  0  0
    4.5173   -2.7924    0.0000 N   0  0  0  0  0  0  0  0  0  0  0  0
    1.9204   -2.8687    0.0000 O   0  0  0  0  0  0  0  0  0  0  0  0
    4.4292    0.2063    0.0000 C   0  0  0  0  0  0  0  0  0  0  0  0
    4.3852    1.7057    0.0000 C   0  0  0  0  0  0  0  0  0  0  0  0
    3.0647    2.4172    0.0000 C   0  0  0  0  0  0  0  0  0  0  0  0
    1.7882    1.6293    0.0000 C   0  0  0  0  0  0  0  0  0  0  0  0
    0.3486    2.0508    0.0000 N   0  0  0  0  0  0  0  0  0  0  0  0
  1  2  1  0
  2  3  1  0
  3  4  1  0
  4  5  1  0
  5  6  1  0
  6  7  1  0
  2  8  1  0
  8  9  2  0
  9 10  1  0
 10 11  2  0
 11 12  1  0
 12 13  1  0
 12 14  2  0
 11 15  1  0
 15 16  2  0
 16 17  1  0
 17 18  2  0
 18 19  1  0
  7  4  1  0
 19  8  1  0
 18 10  1  0
M  END
$$$$

     RDKit          2D

 28 31  0  0  0  0  0  0  0  0999 V2000
   -4.4057    1.8740    0.0000 O   0  0  0  0  0  0  0  0  0  0  0  0
   -4.4865    0.3762    0.0000 C   0  0  0  0  0  0  0  0  0  0  0  0
   -3.2297   -0.4427    0.0000 S   0  0  0  0  0  0  0  0  0  0  0  0
   -1.8922    0.2362    0.0000 C   0  0  0  0  0  0  0  0  0  0  0  0
   -0.6354   -0.5827    0.0000 C   0  0  0  0  0  0  0  0  0  0  0  0
    0.7021    0.0962    0.0000 C   0  0  0  0  0  0  0  0  0  0  0  0
    1.9589   -0.7226    0.0000 C   0  0  0  0  0  0  0  0  0  0  0  0
    3.2964   -0.0437    0.0000 C   0  0  0  0  0  0  0  0  0  0  0  0
    3.3772    1.4541    0.0000 N   0  0  0  0  0  0  0  0  0  0  0  0
    4.7148    2.1331    0.0000 N   0  0  0  0  0  0  0  0  0  0  0  0
    5.9715    1.3142    0.0000 C   0  0  0  0  0  0  0  0  0  0  0  0
    7.3091    1.9931    0.0000 O   0  0  0  0  0  0  0  0  0  0  0  0
    5.8907   -0.1837    0.0000 C   0  0  0  0  0  0  0  0  0  0  0  0
    4.5532   -0.8626    0.0000 C   0  0  0  0  0  0  0  0  0  0  0  0
    4.4724   -2.3604    0.0000 C   0  0  0  0  0  0  0  0  0  0  0  0
    5.7291   -3.1793    0.0000 C   0  0  0  0  0  0  0  0  0  0  0  0
    7.0667   -2.5004    0.0000 C   0  0  0  0  0  0  0  0  0  0  0  0
    7.1475   -1.0025    0.0000 C   0  0  0  0  0  0  0  0  0  0  0  0
    0.7829    1.5941    0.0000 C   0  0  0  0  0  0  0  0  0  0  0  0
   -0.4738    2.4130    0.0000 C   0  0  0  0  0  0  0  0  0  0  0  0
   -1.8114    1.7340    0.0000 C   0  0  0  0  0  0  0  0  0  0  0  0
   -3.0681    2.5529    0.0000 F   0  0  0  0  0  0  0  0  0  0  0  0
   -5.8240   -0.3028    0.0000 N   0  0  0  0  0  0  0  0  0  0  0  0
   -7.0808    0.5161    0.0000 C   0  0  0  0  0  0  0  0  0  0  0  0
   -8.4183   -0.1628    0.0000 C   0  0  0  0  0  0  0  0  0  0  0  0
   -8.4991   -1.6607    0.0000 O   0  0  0  0  0  0  0  0  0  0  0  0
   -7.2424   -2.4795    0.0000 C   0  0  0  0  0  0  0  0  0  0  0  0
   -5.9048   -1.8006    0.0000 C   0  0  0  0  0  0  0  0  0  0  0  0
  1  2  2  0
  2  3  1  0
  3  4  1  0
  4  5  2  0
  5  6  1  0
  6  7  1  0
  7  8  1  0
  8  9  2  0
  9 10  1  0
 10 11  1  0
 11 12  2  0
 11 13  1  0
 13 14  2  0
 14 15  1  0
 15 16  1  0
 16 17  1  0
 17 18  1  0
  6 19  2  0
 19 20  1  0
 20 21  2  0
 21 22  1  0
  2 23  1  0
 23 24  1  0
 24 25  1  0
 25 26  1  0
 26 27  1  0
 27 28  1  0
 21  4  1  0
 28 23  1  0
 14  8  1  0
 18 13  1  0
M  END
$$$$

     RDKit          2D

 37 41  0  0  0  0  0  0  0  0999 V2000
  -11.1220    4.9177    0.0000 C   0  0  0  0  0  0  0  0  0  0  0  0
   -9.6827    4.4953    0.0000 C   0  0  0  0  0  0  0  0  0  0  0  0
   -9.3289    3.0377    0.0000 C   0  0  0  0  0  0  0  0  0  0  0  0
   -7.8895    2.6153    0.0000 N   0  0  0  0  0  0  0  0  0  0  0  0
   -7.5357    1.1576    0.0000 C   0  0  0  0  0  0  0  0  0  0  0  0
   -6.0964    0.7353    0.0000 C   0  0  0  0  0  0  0  0  0  0  0  0
   -5.0109    1.7706    0.0000 C   0  0  0  0  0  0  0  0  0  0  0  0
   -3.5716    1.3482    0.0000 C   0  0  0  0  0  0  0  0  0  0  0  0
   -3.2178   -0.1095    0.0000 C   0  0  0  0  0  0  0  0  0  0  0  0
   -4.3032   -1.1448    0.0000 C   0  0  0  0  0  0  0  0  0  0  0  0
   -3.9493   -2.6024    0.0000 C   0  0  0  0  0  0  0  0  0  0  0  0
   -5.0348   -3.6377    0.0000 O   0  0  0  0  0  0  0  0  0  0  0  0
   -2.5100   -3.0248    0.0000 N   0  0  0  0  0  0  0  0  0  0  0  0
   -2.1562   -4.4825    0.0000 C   0  0  0  0  0  0  0  0  0  0  0  0
   -0.7169   -4.9048    0.0000 C   0  0  0  0  0  0  0  0  0  0  0  0
    0.3686   -3.8695    0.0000 N   0  0  0  0  0  0  0  0  0  0  0  0
    1.8079   -4.2919    0.0000 C   0  0  0  0  0  0  0  0  0  0  0  0
    2.1618   -5.7496    0.0000 O   0  0  0  0  0  0  0  0  0  0  0  0
    2.8933   -3.2566    0.0000 C   0  0  0  0  0  0  0  0  0  0  0  0
    4.3929   -3.2921    0.0000 C   0  0  0  0  0  0  0  0  0  0  0  0
    4.4284   -1.7925    0.0000 C   0  0  0  0  0  0  0  0  0  0  0  0
    5.5138   -0.7572    0.0000 C   0  0  0  0  0  0  0  0  0  0  0  0
    5.1599    0.7004    0.0000 C   0  0  0  0  0  0  0  0  0  0  0  0
    3.7206    1.1228    0.0000 N   0  0  0  0  0  0  0  0  0  0  0  0
    3.3668    2.5805    0.0000 N   0  0  0  0  0  0  0  0  0  0  0  0
    4.4522    3.6158    0.0000 C   0  0  0  0  0  0  0  0  0  0  0  0
    4.0983    5.0734    0.0000 O   0  0  0  0  0  0  0  0  0  0  0  0
    5.8915    3.1934    0.0000 C   0  0  0  0  0  0  0  0  0  0  0  0
    6.2454    1.7357    0.0000 C   0  0  0  0  0  0  0  0  0  0  0  0
    7.6847    1.3134    0.0000 C   0  0  0  0  0  0  0  0  0  0  0  0
    8.7701    2.3486    0.0000 C   0  0  0  0  0  0  0  0  0  0  0  0
    8.4163    3.8063    0.0000 C   0  0  0  0  0  0  0  0  0  0  0  0
    6.9770    4.2287    0.0000 C   0  0  0  0  0  0  0  0  0  0  0  0
    2.9288   -1.7570    0.0000 C   0  0  0  0  0  0  0  0  0  0  0  0
    0.0147   -2.4119    0.0000 C   0  0  0  0  0  0  0  0  0  0  0  0
   -1.4246   -1.9895    0.0000 C   0  0  0  0  0  0  0  0  0  0  0  0
   -5.7425   -0.7224    0.0000 C   0  0  0  0  0  0  0  0  0  0  0  0
  1  2  1  0
  2  3  1  0
  3  4  1  0
  4  5  1  0
  5  6  1  0
  6  7  2  0
  7  8  1  0
  8  9  2  0
  9 10  1  0
 10 11  1  0
 11 12  2  0
 11 13  1  0
 13 14  1  0
 14 15  1  0
 15 16  1  0
 16 17  1  0
 17 18  2  0
 17 19  1  0
 19 20  2  0
 20 21  1  0
 21 22  1  0
 22 23  1  0
 23 24  2  0
 24 25  1  0
 25 26  1  0
 26 27  2  0
 26 28  1  0
 28 29  2  0
 29 30  1  0
 30 31  1  0
 31 32  1  0
 32 33  1  0
 21 34  2  0
 16 35  1  0
 35 36  1  0
 10 37  2  0
 37  6  1  0
 36 13  1  0
 34 19  1  0
 29 23  1  0
 33 28  1  0
M  END
$$$$

     RDKit          2D

 27 30  0  0  0  0  0  0  0  0999 V2000
   -3.8903    4.3992    0.0000 C   0  0  0  0  0  0  0  0  0  0  0  0
   -4.0118    2.9041    0.0000 C   0  0  0  0  0  0  0  0  0  0  0  0
   -5.3674    2.2618    0.0000 N   0  0  0  0  0  0  0  0  0  0  0  0
   -2.7778    2.0514    0.0000 C   0  0  0  0  0  0  0  0  0  0  0  0
   -1.4223    2.6937    0.0000 C   0  0  0  0  0  0  0  0  0  0  0  0
   -0.1883    1.8409    0.0000 C   0  0  0  0  0  0  0  0  0  0  0  0
   -0.3098    0.3459    0.0000 C   0  0  0  0  0  0  0  0  0  0  0  0
    0.9242   -0.5069    0.0000 C   0  0  0  0  0  0  0  0  0  0  0  0
    2.2797    0.1354    0.0000 C   0  0  0  0  0  0  0  0  0  0  0  0
    2.4012    1.6305    0.0000 N   0  0  0  0  0  0  0  0  0  0  0  0
    3.7568    2.2728    0.0000 N   0  0  0  0  0  0  0  0  0  0  0  0
    4.9908    1.4200    0.0000 C   0  0  0  0  0  0  0  0  0  0  0  0
    6.3463    2.0623    0.0000 O   0  0  0  0  0  0  0  0  0  0  0  0
    4.8693   -0.0750    0.0000 C   0  0  0  0  0  0  0  0  0  0  0  0
    3.5138   -0.7173    0.0000 C   0  0  0  0  0  0  0  0  0  0  0  0
    3.3923   -2.2124    0.0000 C   0  0  0  0  0  0  0  0  0  0  0  0
    4.6263   -3.0652    0.0000 C   0  0  0  0  0  0  0  0  0  0  0  0
    5.9818   -2.4229    0.0000 C   0  0  0  0  0  0  0  0  0  0  0  0
    6.1033   -0.9278    0.0000 C   0  0  0  0  0  0  0  0  0  0  0  0
   -1.6653   -0.2965    0.0000 C   0  0  0  0  0  0  0  0  0  0  0  0
   -2.8993    0.5563    0.0000 C   0  0  0  0  0  0  0  0  0  0  0  0
   -4.2549   -0.0860    0.0000 N   0  0  0  0  0  0  0  0  0  0  0  0
   -4.3764   -1.5811    0.0000 C   0  0  0  0  0  0  0  0  0  0  0  0
   -3.2382   -2.5582    0.0000 C   0  0  0  0  0  0  0  0  0  0  0  0
   -3.8158   -3.9425    0.0000 C   0  0  0  0  0  0  0  0  0  0  0  0
   -5.3109   -3.8210    0.0000 C   0  0  0  0  0  0  0  0  0  0  0  0
   -5.6573   -2.3616    0.0000 N   0  0  0  0  0  0  0  0  0  0  0  0
  1  2  1  0
  2  3  2  0
  2  4  1  0
  4  5  2  0
  5  6  1  0
  6  7  2  0
  7  8  1  0
  8  9  1  0
  9 10  2  0
 10 11  1  0
 11 12  1  0
 12 13  2  0
 12 14  1  0
 14 15  2  0
 15 16  1  0
 16 17  1  0
 17 18  1  0
 18 19  1  0
  7 20  1  0
 20 21  2  0
 21 22  1  0
 22 23  1  0
 23 24  1  0
 24 25  1  0
 25 26  1  0
 26 27  1  0
 21  4  1  0
 27 23  1  0
 15  9  1  0
 19 14  1  0
M  END
$$$$

     RDKit          2D

 24 27  0  0  0  0  0  0  0  0999 V2000
    3.8393   -3.4102    0.0000 O   0  0  0  0  0  0  0  0  0  0  0  0
    3.0940   -2.1085    0.0000 C   0  0  0  0  0  0  0  0  0  0  0  0
    1.5941   -2.1030    0.0000 N   0  0  0  0  0  0  0  0  0  0  0  0
    0.8488   -0.8013    0.0000 N   0  0  0  0  0  0  0  0  0  0  0  0
    1.6035    0.4950    0.0000 C   0  0  0  0  0  0  0  0  0  0  0  0
    0.8582    1.7968    0.0000 C   0  0  0  0  0  0  0  0  0  0  0  0
   -0.6418    1.8022    0.0000 C   0  0  0  0  0  0  0  0  0  0  0  0
   -1.3871    3.1040    0.0000 C   0  0  0  0  0  0  0  0  0  0  0  0
   -2.8871    3.1094    0.0000 C   0  0  0  0  0  0  0  0  0  0  0  0
   -3.6418    1.8131    0.0000 C   0  0  0  0  0  0  0  0  0  0  0  0
   -5.1418    1.8185    0.0000 F   0  0  0  0  0  0  0  0  0  0  0  0
   -2.8965    0.5113    0.0000 C   0  0  0  0  0  0  0  0  0  0  0  0
   -3.6512   -0.7850    0.0000 N   0  0  0  0  0  0  0  0  0  0  0  0
   -3.0461   -2.1575    0.0000 C   0  0  0  0  0  0  0  0  0  0  0  0
   -4.1644   -3.1571    0.0000 C   0  0  0  0  0  0  0  0  0  0  0  0
   -5.4607   -2.4024    0.0000 C   0  0  0  0  0  0  0  0  0  0  0  0
   -5.1435   -0.9363    0.0000 N   0  0  0  0  0  0  0  0  0  0  0  0
   -1.3965    0.5059    0.0000 C   0  0  0  0  0  0  0  0  0  0  0  0
    3.1035    0.4896    0.0000 C   0  0  0  0  0  0  0  0  0  0  0  0
    3.8487   -0.8121    0.0000 C   0  0  0  0  0  0  0  0  0  0  0  0
    5.3487   -0.8176    0.0000 C   0  0  0  0  0  0  0  0  0  0  0  0
    6.1034    0.4787    0.0000 C   0  0  0  0  0  0  0  0  0  0  0  0
    5.3582    1.7805    0.0000 C   0  0  0  0  0  0  0  0  0  0  0  0
    3.8582    1.7859    0.0000 N   0  0  0  0  0  0  0  0  0  0  0  0
  1  2  2  0
  2  3  1  0
  3  4  1  0
  4  5  2  0
  5  6  1  0
  6  7  1  0
  7  8  2  0
  8  9  1  0
  9 10  2  0
 10 11  1  0
 10 12  1  0
 12 13  1  0
 13 14  1  0
 14 15  1  0
 15 16  1  0
 16 17  1  0
 12 18  2  0
  5 19  1  0
 19 20  2  0
 20 21  1  0
 21 22  1  0
 22 23  1  0
 23 24  1  0
 20  2  1  0
 18  7  1  0
 24 19  1  0
 17 13  1  0
M  END
$$$$

     RDKit          2D

 26 29  0  0  0  0  0  0  0  0999 V2000
    4.7788   -3.5797    0.0000 O   0  0  0  0  0  0  0  0  0  0  0  0
    4.0646   -2.2606    0.0000 C   0  0  0  0  0  0  0  0  0  0  0  0
    2.5652   -2.2195    0.0000 N   0  0  0  0  0  0  0  0  0  0  0  0
    1.8510   -0.9004    0.0000 N   0  0  0  0  0  0  0  0  0  0  0  0
    2.6363    0.3776    0.0000 C   0  0  0  0  0  0  0  0  0  0  0  0
    1.9222    1.6967    0.0000 C   0  0  0  0  0  0  0  0  0  0  0  0
    0.4228    1.7378    0.0000 C   0  0  0  0  0  0  0  0  0  0  0  0
   -0.2914    3.0569    0.0000 C   0  0  0  0  0  0  0  0  0  0  0  0
   -1.7908    3.0979    0.0000 C   0  0  0  0  0  0  0  0  0  0  0  0
   -2.5761    1.8199    0.0000 C   0  0  0  0  0  0  0  0  0  0  0  0
   -1.8620    0.5008    0.0000 C   0  0  0  0  0  0  0  0  0  0  0  0
   -2.6473   -0.7772    0.0000 N   0  0  0  0  0  0  0  0  0  0  0  0
   -4.1467   -0.7361    0.0000 C   0  0  0  0  0  0  0  0  0  0  0  0
   -4.8609    0.5830    0.0000 C   0  0  0  0  0  0  0  0  0  0  0  0
   -6.3603    0.6241    0.0000 C   0  0  0  0  0  0  0  0  0  0  0  0
   -7.1456   -0.6539    0.0000 C   0  0  0  0  0  0  0  0  0  0  0  0
   -8.6450   -0.6128    0.0000 O   0  0  0  0  0  0  0  0  0  0  0  0
   -6.4314   -1.9730    0.0000 C   0  0  0  0  0  0  0  0  0  0  0  0
   -4.9320   -2.0141    0.0000 C   0  0  0  0  0  0  0  0  0  0  0  0
   -0.3625    0.4598    0.0000 C   0  0  0  0  0  0  0  0  0  0  0  0
    4.1358    0.3365    0.0000 C   0  0  0  0  0  0  0  0  0  0  0  0
    4.8499   -0.9826    0.0000 C   0  0  0  0  0  0  0  0  0  0  0  0
    6.3493   -1.0236    0.0000 C   0  0  0  0  0  0  0  0  0  0  0  0
    7.1346    0.2544    0.0000 C   0  0  0  0  0  0  0  0  0  0  0  0
    6.4205    1.5735    0.0000 C   0  0  0  0  0  0  0  0  0  0  0  0
    4.9211    1.6145    0.0000 C   0  0  0  0  0  0  0  0  0  0  0  0
  1  2  2  0
  2  3  1  0
  3  4  1  0
  4  5  2  0
  5  6  1  0
  6  7  1  0
  7  8  2  0
  8  9  1  0
  9 10  2  0
 10 11  1  0
 11 12  1  0
 12 13  1  0
 13 14  2  0
 14 15  1  0
 15 16  2  0
 16 17  1  0
 16 18  1  0
 18 19  2  0
 11 20  2  0
  5 21  1  0
 21 22  2  0
 22 23  1  0
 23 24  1  0
 24 25  1  0
 25 26  1  0
 22  2  1  0
 20  7  1  0
 26 21  1  0
 19 13  1  0
M  END
$$$$

     RDKit          2D

 35 39  0  0  0  0  0  0  0  0999 V2000
   -7.9167   -1.8704    0.0000 O   0  0  0  0  0  0  0  0  0  0  0  0
   -6.8664   -0.7995    0.0000 C   0  0  0  0  0  0  0  0  0  0  0  0
   -7.2687    0.6456    0.0000 C   0  0  0  0  0  0  0  0  0  0  0  0
   -6.2184    1.7165    0.0000 C   0  0  0  0  0  0  0  0  0  0  0  0
   -6.6207    3.1615    0.0000 C   0  0  0  0  0  0  0  0  0  0  0  0
   -8.0733    3.5356    0.0000 N   0  0  0  0  0  0  0  0  0  0  0  0
   -9.1236    2.4647    0.0000 C   0  0  0  0  0  0  0  0  0  0  0  0
   -8.7213    1.0197    0.0000 N   0  0  0  0  0  0  0  0  0  0  0  0
   -5.4138   -1.1736    0.0000 N   0  0  0  0  0  0  0  0  0  0  0  0
   -5.0115   -2.6186    0.0000 C   0  0  0  0  0  0  0  0  0  0  0  0
   -3.5589   -2.9927    0.0000 C   0  0  0  0  0  0  0  0  0  0  0  0
   -2.5086   -1.9218    0.0000 N   0  0  0  0  0  0  0  0  0  0  0  0
   -1.0560   -2.2959    0.0000 C   0  0  0  0  0  0  0  0  0  0  0  0
   -0.6537   -3.7410    0.0000 O   0  0  0  0  0  0  0  0  0  0  0  0
   -0.0057   -1.2250    0.0000 C   0  0  0  0  0  0  0  0  0  0  0  0
    1.4469   -1.5991    0.0000 C   0  0  0  0  0  0  0  0  0  0  0  0
    2.4972   -0.5282    0.0000 C   0  0  0  0  0  0  0  0  0  0  0  0
    3.9498   -0.9023    0.0000 C   0  0  0  0  0  0  0  0  0  0  0  0
    5.0001    0.1687    0.0000 C   0  0  0  0  0  0  0  0  0  0  0  0
    4.5978    1.6137    0.0000 N   0  0  0  0  0  0  0  0  0  0  0  0
    5.6480    2.6846    0.0000 N   0  0  0  0  0  0  0  0  0  0  0  0
    7.1006    2.3105    0.0000 C   0  0  0  0  0  0  0  0  0  0  0  0
    8.1509    3.3815    0.0000 O   0  0  0  0  0  0  0  0  0  0  0  0
    7.5030    0.8655    0.0000 C   0  0  0  0  0  0  0  0  0  0  0  0
    6.4527   -0.2054    0.0000 C   0  0  0  0  0  0  0  0  0  0  0  0
    6.8550   -1.6505    0.0000 N   0  0  0  0  0  0  0  0  0  0  0  0
    8.3076   -2.0246    0.0000 C   0  0  0  0  0  0  0  0  0  0  0  0
    9.3579   -0.9537    0.0000 C   0  0  0  0  0  0  0  0  0  0  0  0
    8.9556    0.4914    0.0000 C   0  0  0  0  0  0  0  0  0  0  0  0
    2.0949    0.9169    0.0000 C   0  0  0  0  0  0  0  0  0  0  0  0
    0.6423    1.2910    0.0000 C   0  0  0  0  0  0  0  0  0  0  0  0
   -0.4080    0.2201    0.0000 C   0  0  0  0  0  0  0  0  0  0  0  0
   -1.8606    0.5942    0.0000 F   0  0  0  0  0  0  0  0  0  0  0  0
   -2.9109   -0.4768    0.0000 C   0  0  0  0  0  0  0  0  0  0  0  0
   -4.3635   -0.1027    0.0000 C   0  0  0  0  0  0  0  0  0  0  0  0
  1  2  2  0
  2  3  1  0
  3  4  2  0
  4  5  1  0
  5  6  2  0
  6  7  1  0
  7  8  2  0
  2  9  1  0
  9 10  1  0
 10 11  1  0
 11 12  1  0
 12 13  1  0
 13 14  2  0
 13 15  1  0
 15 16  2  0
 16 17  1  0
 17 18  1  0
 18 19  1  0
 19 20  2  0
 20 21  1  0
 21 22  1  0
 22 23  2  0
 22 24  1  0
 24 25  2  0
 25 26  1  0
 26 27  1  0
 27 28  1  0
 28 29  1  0
 17 30  2  0
 30 31  1  0
 31 32  2  0
 32 33  1  0
 12 34  1  0
 34 35  1  0
  8  3  1  0
 35  9  1  0
 32 15  1  0
 25 19  1  0
 29 24  1  0
M  END
$$$$

     RDKit          2D

 21 23  0  0  0  0  0  0  0  0999 V2000
   -8.1956    0.0702    0.0000 C   0  0  0  0  0  0  0  0  0  0  0  0
   -6.7247    0.3642    0.0000 C   0  0  0  0  0  0  0  0  0  0  0  0
   -5.7346   -0.7626    0.0000 N   0  0  0  0  0  0  0  0  0  0  0  0
   -4.2637   -0.4686    0.0000 C   0  0  0  0  0  0  0  0  0  0  0  0
   -3.7829    0.9523    0.0000 C   0  0  0  0  0  0  0  0  0  0  0  0
   -2.3120    1.2463    0.0000 C   0  0  0  0  0  0  0  0  0  0  0  0
   -1.3219    0.1195    0.0000 C   0  0  0  0  0  0  0  0  0  0  0  0
    0.1490    0.4135    0.0000 C   0  0  0  0  0  0  0  0  0  0  0  0
    1.2515   -0.6036    0.0000 N   0  0  0  0  0  0  0  0  0  0  0  0
    2.5595    0.1305    0.0000 C   0  0  0  0  0  0  0  0  0  0  0  0
    3.9804   -0.3503    0.0000 C   0  0  0  0  0  0  0  0  0  0  0  0
    4.2744   -1.8212    0.0000 C   0  0  0  0  0  0  0  0  0  0  0  0
    5.6953   -2.3020    0.0000 N   0  0  0  0  0  0  0  0  0  0  0  0
    3.1476   -2.8113    0.0000 O   0  0  0  0  0  0  0  0  0  0  0  0
    5.1072    0.6398    0.0000 C   0  0  0  0  0  0  0  0  0  0  0  0
    4.8132    2.1107    0.0000 C   0  0  0  0  0  0  0  0  0  0  0  0
    3.3923    2.5915    0.0000 C   0  0  0  0  0  0  0  0  0  0  0  0
    2.2655    1.6014    0.0000 C   0  0  0  0  0  0  0  0  0  0  0  0
    0.7757    1.7763    0.0000 N   0  0  0  0  0  0  0  0  0  0  0  0
   -1.8027   -1.3014    0.0000 C   0  0  0  0  0  0  0  0  0  0  0  0
   -3.2736   -1.5954    0.0000 C   0  0  0  0  0  0  0  0  0  0  0  0
  1  2  1  0
  2  3  1  0
  3  4  1  0
  4  5  2  0
  5  6  1  0
  6  7  2  0
  7  8  1  0
  8  9  2  0
  9 10  1  0
 10 11  2  0
 11 12  1  0
 12 13  1  0
 12 14  2  0
 11 15  1  0
 15 16  2  0
 16 17  1  0
 17 18  2  0
 18 19  1  0
  7 20  1  0
 20 21  2  0
 21  4  1  0
 19  8  1  0
 18 10  1  0
M  END
$$$$

     RDKit          2D

 28 31  0  0  0  0  0  0  0  0999 V2000
   -8.7362    1.0809    0.0000 N   0  0  0  0  0  0  0  0  0  0  0  0
   -7.3683    0.4656    0.0000 C   0  0  0  0  0  0  0  0  0  0  0  0
   -6.1514    1.3426    0.0000 C   0  0  0  0  0  0  0  0  0  0  0  0
   -4.7834    0.7273    0.0000 C   0  0  0  0  0  0  0  0  0  0  0  0
   -4.6323   -0.7651    0.0000 N   0  0  0  0  0  0  0  0  0  0  0  0
   -3.2643   -1.3805    0.0000 C   0  0  0  0  0  0  0  0  0  0  0  0
   -3.1132   -2.8728    0.0000 O   0  0  0  0  0  0  0  0  0  0  0  0
   -2.0474   -0.5034    0.0000 C   0  0  0  0  0  0  0  0  0  0  0  0
   -0.6795   -1.1188    0.0000 C   0  0  0  0  0  0  0  0  0  0  0  0
    0.5374   -0.2417    0.0000 C   0  0  0  0  0  0  0  0  0  0  0  0
    1.9054   -0.8571    0.0000 C   0  0  0  0  0  0  0  0  0  0  0  0
    3.1223    0.0199    0.0000 C   0  0  0  0  0  0  0  0  0  0  0  0
    2.9712    1.5123    0.0000 N   0  0  0  0  0  0  0  0  0  0  0  0
    4.1881    2.3893    0.0000 N   0  0  0  0  0  0  0  0  0  0  0  0
    5.5561    1.7740    0.0000 C   0  0  0  0  0  0  0  0  0  0  0  0
    6.7730    2.6510    0.0000 O   0  0  0  0  0  0  0  0  0  0  0  0
    5.7071    0.2816    0.0000 C   0  0  0  0  0  0  0  0  0  0  0  0
    4.4903   -0.5954    0.0000 C   0  0  0  0  0  0  0  0  0  0  0  0
    4.6413   -2.0878    0.0000 N   0  0  0  0  0  0  0  0  0  0  0  0
    6.0093   -2.7031    0.0000 C   0  0  0  0  0  0  0  0  0  0  0  0
    7.2262   -1.8261    0.0000 C   0  0  0  0  0  0  0  0  0  0  0  0
    7.0751   -0.3337    0.0000 C   0  0  0  0  0  0  0  0  0  0  0  0
    0.3863    1.2506    0.0000 C   0  0  0  0  0  0  0  0  0  0  0  0
   -0.9816    1.8660    0.0000 C   0  0  0  0  0  0  0  0  0  0  0  0
   -2.1985    0.9889    0.0000 C   0  0  0  0  0  0  0  0  0  0  0  0
   -3.5665    1.6043    0.0000 F   0  0  0  0  0  0  0  0  0  0  0  0
   -5.8492   -1.6421    0.0000 C   0  0  0  0  0  0  0  0  0  0  0  0
   -7.2172   -1.0268    0.0000 C   0  0  0  0  0  0  0  0  0  0  0  0
  1  2  1  0
  2  3  1  0
  3  4  1  0
  4  5  1  0
  5  6  1  0
  6  7  2  0
  6  8  1  0
  8  9  2  0
  9 10  1  0
 10 11  1  0
 11 12  1  0
 12 13  2  0
 13 14  1  0
 14 15  1  0
 15 16  2  0
 15 17  1  0
 17 18  2  0
 18 19  1  0
 19 20  1  0
 20 21  1  0
 21 22  1  0
 10 23  2  0
 23 24  1  0
 24 25  2  0
 25 26  1  0
  5 27  1  0
 27 28  1  0
 28  2  1  0
 25  8  1  0
 18 12  1  0
 22 17  1  0
M  END
$$$$

     RDKit          2D

 35 39  0  0  0  0  0  0  0  0999 V2000
   -7.9421   -2.2465    0.0000 O   0  0  0  0  0  0  0  0  0  0  0  0
   -7.3153   -0.8837    0.0000 C   0  0  0  0  0  0  0  0  0  0  0  0
   -8.1821    0.3405    0.0000 C   0  0  0  0  0  0  0  0  0  0  0  0
   -9.6820    0.3588    0.0000 C   0  0  0  0  0  0  0  0  0  0  0  0
  -10.1281    1.7909    0.0000 O   0  0  0  0  0  0  0  0  0  0  0  0
   -8.9039    2.6577    0.0000 C   0  0  0  0  0  0  0  0  0  0  0  0
   -7.7012    1.7613    0.0000 C   0  0  0  0  0  0  0  0  0  0  0  0
   -5.8217   -0.7451    0.0000 N   0  0  0  0  0  0  0  0  0  0  0  0
   -5.2985    0.6607    0.0000 C   0  0  0  0  0  0  0  0  0  0  0  0
   -3.8732    1.1281    0.0000 C   0  0  0  0  0  0  0  0  0  0  0  0
   -2.6191    0.3052    0.0000 C   0  0  0  0  0  0  0  0  0  0  0  0
   -2.4805   -1.1884    0.0000 N   0  0  0  0  0  0  0  0  0  0  0  0
   -1.0747   -1.7116    0.0000 C   0  0  0  0  0  0  0  0  0  0  0  0
   -0.8249   -3.1906    0.0000 O   0  0  0  0  0  0  0  0  0  0  0  0
    0.0813   -0.7557    0.0000 C   0  0  0  0  0  0  0  0  0  0  0  0
    1.4871   -1.2789    0.0000 C   0  0  0  0  0  0  0  0  0  0  0  0
    2.6431   -0.3231    0.0000 C   0  0  0  0  0  0  0  0  0  0  0  0
    4.0489   -0.8463    0.0000 C   0  0  0  0  0  0  0  0  0  0  0  0
    5.2049    0.1096    0.0000 C   0  0  0  0  0  0  0  0  0  0  0  0
    4.9551    1.5886    0.0000 N   0  0  0  0  0  0  0  0  0  0  0  0
    6.1111    2.5445    0.0000 N   0  0  0  0  0  0  0  0  0  0  0  0
    7.5169    2.0213    0.0000 C   0  0  0  0  0  0  0  0  0  0  0  0
    8.6729    2.9772    0.0000 O   0  0  0  0  0  0  0  0  0  0  0  0
    7.7667    0.5422    0.0000 C   0  0  0  0  0  0  0  0  0  0  0  0
    6.6107   -0.4136    0.0000 C   0  0  0  0  0  0  0  0  0  0  0  0
    6.8605   -1.8927    0.0000 C   0  0  0  0  0  0  0  0  0  0  0  0
    8.2663   -2.4159    0.0000 C   0  0  0  0  0  0  0  0  0  0  0  0
    9.4223   -1.4600    0.0000 C   0  0  0  0  0  0  0  0  0  0  0  0
    9.1725    0.0191    0.0000 C   0  0  0  0  0  0  0  0  0  0  0  0
    2.3933    1.1560    0.0000 C   0  0  0  0  0  0  0  0  0  0  0  0
    0.9875    1.6792    0.0000 C   0  0  0  0  0  0  0  0  0  0  0  0
   -0.1685    0.7233    0.0000 C   0  0  0  0  0  0  0  0  0  0  0  0
   -1.5743    1.2465    0.0000 F   0  0  0  0  0  0  0  0  0  0  0  0
   -3.5619   -2.2280    0.0000 C   0  0  0  0  0  0  0  0  0  0  0  0
   -5.0488   -2.0307    0.0000 C   0  0  0  0  0  0  0  0  0  0  0  0
  1  2  2  0
  2  3  1  0
  3  4  2  0
  4  5  1  0
  5  6  1  0
  6  7  1  0
  2  8  1  0
  8  9  1  0
  9 10  1  0
 10 11  1  0
 11 12  1  0
 12 13  1  0
 13 14  2  0
 13 15  1  0
 15 16  2  0
 16 17  1  0
 17 18  1  0
 18 19  1  0
 19 20  2  0
 20 21  1  0
 21 22  1  0
 22 23  2  0
 22 24  1  0
 24 25  2  0
 25 26  1  0
 26 27  1  0
 27 28  1  0
 28 29  1  0
 17 30  2  0
 30 31  1  0
 31 32  2  0
 32 33  1  0
 12 34  1  0
 34 35  1  0
  7  3  1  0
 35  8  1  0
 32 15  1  0
 25 19  1  0
 29 24  1  0
M  END
$$$$

     RDKit          2D

 26 29  0  0  0  0  0  0  0  0999 V2000
   -6.6851   -0.2089    0.0000 C   0  0  0  0  0  0  0  0  0  0  0  0
   -5.1851   -0.2184    0.0000 C   0  0  0  0  0  0  0  0  0  0  0  0
   -4.4269    1.0758    0.0000 C   0  0  0  0  0  0  0  0  0  0  0  0
   -2.9269    1.0663    0.0000 C   0  0  0  0  0  0  0  0  0  0  0  0
   -2.1851   -0.2375    0.0000 C   0  0  0  0  0  0  0  0  0  0  0  0
   -0.6852   -0.2470    0.0000 C   0  0  0  0  0  0  0  0  0  0  0  0
   -0.4704   -1.0146    0.0000 O   0  0  0  0  0  0  0  0  0  0  0  0
    0.0730    1.0473    0.0000 N   0  0  0  0  0  0  0  0  0  0  0  0
   -0.7641    2.2920    0.0000 C   0  0  0  0  0  0  0  0  0  0  0  0
   -0.3128    3.7225    0.0000 C   0  0  0  0  0  0  0  0  0  0  0  0
    1.0869    4.2616    0.0000 N   0  0  0  0  0  0  0  0  0  0  0  0
    2.3812    3.5034    0.0000 C   0  0  0  0  0  0  0  0  0  0  0  0
    2.5953    2.0188    0.0000 C   0  0  0  0  0  0  0  0  0  0  0  0
    3.9523    1.3796    0.0000 N   0  0  0  0  0  0  0  0  0  0  0  0
    3.7638   -0.1085    0.0000 C   0  0  0  0  0  0  0  0  0  0  0  0
    4.7435   -1.2443    0.0000 C   0  0  0  0  0  0  0  0  0  0  0  0
    4.2497   -2.6607    0.0000 C   0  0  0  0  0  0  0  0  0  0  0  0
    2.7762   -2.9413    0.0000 C   0  0  0  0  0  0  0  0  0  0  0  0
    1.7965   -1.8054    0.0000 C   0  0  0  0  0  0  0  0  0  0  0  0
    0.3229   -2.0860    0.0000 C   0  0  0  0  0  0  0  0  0  0  0  0
   -0.1709   -3.5023    0.0000 N   0  0  0  0  0  0  0  0  0  0  0  0
   -0.4007   -1.5752    0.0000 O   0  0  0  0  0  0  0  0  0  0  0  0
    2.2903   -0.3890    0.0000 C   0  0  0  0  0  0  0  0  0  0  0  0
    1.5681    0.9257    0.0000 C   0  0  0  0  0  0  0  0  0  0  0  0
   -2.9434   -1.5317    0.0000 C   0  0  0  0  0  0  0  0  0  0  0  0
   -4.4433   -1.5222    0.0000 C   0  0  0  0  0  0  0  0  0  0  0  0
  1  2  1  0
  2  3  2  0
  3  4  1  0
  4  5  2  0
  5  6  1  0
  6  7  2  0
  6  8  1  0
  8  9  1  0
  9 10  1  0
 10 11  1  0
 11 12  1  0
 12 13  1  0
 13 14  1  0
 14 15  1  0
 15 16  2  0
 16 17  1  0
 17 18  2  0
 18 19  1  0
 19 20  1  0
 20 21  1  0
 20 22  2  0
 19 23  2  0
 23 24  1  0
  5 25  1  0
 25 26  2  0
 26  2  1  0
 24  8  1  0
 24 13  2  0
 23 15  1  0
M  END
$$$$

     RDKit          2D

 20 22  0  0  0  0  0  0  0  0999 V2000
   -7.1335    0.3859    0.0000 C   0  0  0  0  0  0  0  0  0  0  0  0
   -6.1463   -0.7435    0.0000 C   0  0  0  0  0  0  0  0  0  0  0  0
   -4.6746   -0.4532    0.0000 N   0  0  0  0  0  0  0  0  0  0  0  0
   -4.1902    0.9665    0.0000 C   0  0  0  0  0  0  0  0  0  0  0  0
   -2.7186    1.2567    0.0000 C   0  0  0  0  0  0  0  0  0  0  0  0
   -1.7313    0.1274    0.0000 C   0  0  0  0  0  0  0  0  0  0  0  0
   -0.2597    0.4177    0.0000 C   0  0  0  0  0  0  0  0  0  0  0  0
    0.8402   -0.6023    0.0000 N   0  0  0  0  0  0  0  0  0  0  0  0
    2.1501    0.1286    0.0000 C   0  0  0  0  0  0  0  0  0  0  0  0
    3.5697   -0.3559    0.0000 C   0  0  0  0  0  0  0  0  0  0  0  0
    3.8600   -1.8275    0.0000 C   0  0  0  0  0  0  0  0  0  0  0  0
    5.2796   -2.3119    0.0000 N   0  0  0  0  0  0  0  0  0  0  0  0
    2.7306   -2.8147    0.0000 O   0  0  0  0  0  0  0  0  0  0  0  0
    4.6990    0.6314    0.0000 C   0  0  0  0  0  0  0  0  0  0  0  0
    4.4088    2.1030    0.0000 C   0  0  0  0  0  0  0  0  0  0  0  0
    2.9891    2.5874    0.0000 C   0  0  0  0  0  0  0  0  0  0  0  0
    1.8598    1.6002    0.0000 C   0  0  0  0  0  0  0  0  0  0  0  0
    0.3705    1.7789    0.0000 N   0  0  0  0  0  0  0  0  0  0  0  0
   -2.2158   -1.2922    0.0000 C   0  0  0  0  0  0  0  0  0  0  0  0
   -3.6874   -1.5825    0.0000 C   0  0  0  0  0  0  0  0  0  0  0  0
  1  2  1  0
  2  3  1  0
  3  4  1  0
  4  5  1  0
  5  6  1  0
  6  7  1  0
  7  8  2  0
  8  9  1  0
  9 10  2  0
 10 11  1  0
 11 12  1  0
 11 13  2  0
 10 14  1  0
 14 15  2  0
 15 16  1  0
 16 17  2  0
 17 18  1  0
  6 19  1  0
 19 20  1  0
 20  3  1  0
 18  7  1  0
 17  9  1  0
M  END
$$$$

     RDKit          2D

 18 20  0  0  0  0  0  0  0  0999 V2000
   -4.5761   -2.2638    0.0000 N   0  0  0  0  0  0  0  0  0  0  0  0
   -3.1494   -1.8006    0.0000 C   0  0  0  0  0  0  0  0  0  0  0  0
   -2.0349   -2.8046    0.0000 O   0  0  0  0  0  0  0  0  0  0  0  0
   -2.8372   -0.3335    0.0000 C   0  0  0  0  0  0  0  0  0  0  0  0
   -3.9517    0.6705    0.0000 C   0  0  0  0  0  0  0  0  0  0  0  0
   -3.6395    2.1376    0.0000 C   0  0  0  0  0  0  0  0  0  0  0  0
   -2.2128    2.6008    0.0000 C   0  0  0  0  0  0  0  0  0  0  0  0
   -1.0983    1.5969    0.0000 C   0  0  0  0  0  0  0  0  0  0  0  0
    0.3935    1.7534    0.0000 N   0  0  0  0  0  0  0  0  0  0  0  0
    1.0033    0.3829    0.0000 C   0  0  0  0  0  0  0  0  0  0  0  0
    2.4704    0.0707    0.0000 C   0  0  0  0  0  0  0  0  0  0  0  0
    2.9336   -1.3560    0.0000 C   0  0  0  0  0  0  0  0  0  0  0  0
    4.4008   -1.6682    0.0000 N   0  0  0  0  0  0  0  0  0  0  0  0
    5.4047   -0.5537    0.0000 C   0  0  0  0  0  0  0  0  0  0  0  0
    4.9415    0.8730    0.0000 C   0  0  0  0  0  0  0  0  0  0  0  0
    3.4744    1.1852    0.0000 N   0  0  0  0  0  0  0  0  0  0  0  0
   -0.1117   -0.6205    0.0000 C   0  0  0  0  0  0  0  0  0  0  0  0
   -1.4105    0.1297    0.0000 C   0  0  0  0  0  0  0  0  0  0  0  0
  1  2  1  0
  2  3  2  0
  2  4  1  0
  4  5  2  0
  5  6  1  0
  6  7  2  0
  7  8  1  0
  8  9  1  0
  9 10  1  0
 10 11  1  0
 11 12  1  0
 12 13  1  0
 13 14  1  0
 14 15  1  0
 15 16  1  0
 10 17  2  0
 17 18  1  0
 18  4  1  0
 18  8  2  0
 16 11  1  0
M  END
$$$$

     RDKit          2D

 33 37  0  0  0  0  0  0  0  0999 V2000
    5.8198   -2.7763    0.0000 O   0  0  0  0  0  0  0  0  0  0  0  0
    4.6722   -1.8104    0.0000 C   0  0  0  0  0  0  0  0  0  0  0  0
    3.2618   -2.3213    0.0000 N   0  0  0  0  0  0  0  0  0  0  0  0
    2.1142   -1.3554    0.0000 C   0  0  0  0  0  0  0  0  0  0  0  0
    2.3769    0.1214    0.0000 C   0  0  0  0  0  0  0  0  0  0  0  0
    1.2293    1.0873    0.0000 C   0  0  0  0  0  0  0  0  0  0  0  0
    1.4920    2.5641    0.0000 C   0  0  0  0  0  0  0  0  0  0  0  0
    0.3443    3.5300    0.0000 C   0  0  0  0  0  0  0  0  0  0  0  0
   -1.0660    3.0191    0.0000 C   0  0  0  0  0  0  0  0  0  0  0  0
   -1.3286    1.5423    0.0000 C   0  0  0  0  0  0  0  0  0  0  0  0
   -2.5372    1.4171    0.0000 F   0  0  0  0  0  0  0  0  0  0  0  0
   -0.1810    0.5764    0.0000 C   0  0  0  0  0  0  0  0  0  0  0  0
   -0.4437   -0.9005    0.0000 N   0  0  0  0  0  0  0  0  0  0  0  0
    0.5967   -1.9810    0.0000 C   0  0  0  0  0  0  0  0  0  0  0  0
   -0.1095   -3.3044    0.0000 C   0  0  0  0  0  0  0  0  0  0  0  0
   -1.5863   -3.0417    0.0000 C   0  0  0  0  0  0  0  0  0  0  0  0
   -2.6669   -4.0821    0.0000 O   0  0  0  0  0  0  0  0  0  0  0  0
   -1.7929   -1.5560    0.0000 C   0  0  0  0  0  0  0  0  0  0  0  0
   -3.1162   -0.8498    0.0000 C   0  0  0  0  0  0  0  0  0  0  0  0
   -3.1664    0.6494    0.0000 N   0  0  0  0  0  0  0  0  0  0  0  0
   -4.4897    1.3555    0.0000 C   0  0  0  0  0  0  0  0  0  0  0  0
   -4.5398    2.8547    0.0000 C   0  0  0  0  0  0  0  0  0  0  0  0
   -5.8632    3.5609    0.0000 O   0  0  0  0  0  0  0  0  0  0  0  0
   -5.7630    0.5626    0.0000 C   0  0  0  0  0  0  0  0  0  0  0  0
   -5.7129   -0.9366    0.0000 C   0  0  0  0  0  0  0  0  0  0  0  0
   -4.3895   -1.6428    0.0000 C   0  0  0  0  0  0  0  0  0  0  0  0
   -4.3394   -3.1419    0.0000 F   0  0  0  0  0  0  0  0  0  0  0  0
    3.7872    0.6323    0.0000 C   0  0  0  0  0  0  0  0  0  0  0  0
    4.9348   -0.3336    0.0000 C   0  0  0  0  0  0  0  0  0  0  0  0
    6.3451    0.1773    0.0000 S   0  0  0  0  0  0  0  0  0  0  0  0
    6.6078    1.6542    0.0000 C   0  0  0  0  0  0  0  0  0  0  0  0
    5.4602    2.6201    0.0000 C   0  0  0  0  0  0  0  0  0  0  0  0
    4.0499    2.1091    0.0000 C   0  0  0  0  0  0  0  0  0  0  0  0
  1  2  2  0
  2  3  1  0
  3  4  1  0
  4  5  2  0
  5  6  1  0
  6  7  2  0
  7  8  1  0
  8  9  2  0
  9 10  1  0
 10 11  1  0
 10 12  2  0
 12 13  1  0
 13 14  1  0
 14 15  1  0
 15 16  1  0
 16 17  1  0
 16 18  1  0
 18 19  1  0
 19 20  2  0
 20 21  1  0
 21 22  1  0
 22 23  1  0
 21 24  2  0
 24 25  1  0
 25 26  2  0
 26 27  1  0
  5 28  1  0
 28 29  2  0
 29 30  1  0
 30 31  1  0
 31 32  1  0
 32 33  1  0
 29  2  1  0
 12  6  1  0
 18 13  1  0
 26 19  1  0
 33 28  1  0
M  END
$$$$

     RDKit          2D

 32 35  0  0  0  0  0  0  0  0999 V2000
   -4.2871    5.4789    0.0000 C   0  0  0  0  0  0  0  0  0  0  0  0
   -4.8035    4.0706    0.0000 N   0  0  0  0  0  0  0  0  0  0  0  0
   -6.2813    3.8137    0.0000 C   0  0  0  0  0  0  0  0  0  0  0  0
   -3.8421    2.9192    0.0000 C   0  0  0  0  0  0  0  0  0  0  0  0
   -4.3586    1.5109    0.0000 C   0  0  0  0  0  0  0  0  0  0  0  0
   -3.3972    0.3595    0.0000 N   0  0  0  0  0  0  0  0  0  0  0  0
   -3.9136   -1.0488    0.0000 C   0  0  0  0  0  0  0  0  0  0  0  0
   -5.3565   -1.4588    0.0000 C   0  0  0  0  0  0  0  0  0  0  0  0
   -5.4125   -2.9577    0.0000 C   0  0  0  0  0  0  0  0  0  0  0  0
   -4.0042   -3.4742    0.0000 C   0  0  0  0  0  0  0  0  0  0  0  0
   -3.0778   -2.2944    0.0000 C   0  0  0  0  0  0  0  0  0  0  0  0
   -1.5789   -2.3504    0.0000 C   0  0  0  0  0  0  0  0  0  0  0  0
   -0.7809   -1.0802    0.0000 O   0  0  0  0  0  0  0  0  0  0  0  0
   -0.8779   -3.6765    0.0000 N   0  0  0  0  0  0  0  0  0  0  0  0
    0.6211   -3.7325    0.0000 C   0  0  0  0  0  0  0  0  0  0  0  0
    1.3221   -5.0586    0.0000 C   0  0  0  0  0  0  0  0  0  0  0  0
    2.8210   -5.1146    0.0000 C   0  0  0  0  0  0  0  0  0  0  0  0
    3.6190   -3.8445    0.0000 C   0  0  0  0  0  0  0  0  0  0  0  0
    2.9180   -2.5183    0.0000 C   0  0  0  0  0  0  0  0  0  0  0  0
    3.7159   -1.2482    0.0000 C   0  0  0  0  0  0  0  0  0  0  0  0
    3.0149    0.0779    0.0000 C   0  0  0  0  0  0  0  0  0  0  0  0
    1.5160    0.1339    0.0000 N   0  0  0  0  0  0  0  0  0  0  0  0
    0.8150    1.4600    0.0000 N   0  0  0  0  0  0  0  0  0  0  0  0
    1.6130    2.7302    0.0000 C   0  0  0  0  0  0  0  0  0  0  0  0
    0.9120    4.0563    0.0000 O   0  0  0  0  0  0  0  0  0  0  0  0
    3.1119    2.6742    0.0000 C   0  0  0  0  0  0  0  0  0  0  0  0
    3.8129    1.3481    0.0000 C   0  0  0  0  0  0  0  0  0  0  0  0
    5.3119    1.2921    0.0000 C   0  0  0  0  0  0  0  0  0  0  0  0
    6.1098    2.5622    0.0000 C   0  0  0  0  0  0  0  0  0  0  0  0
    5.4088    3.8883    0.0000 C   0  0  0  0  0  0  0  0  0  0  0  0
    3.9099    3.9443    0.0000 C   0  0  0  0  0  0  0  0  0  0  0  0
    1.4190   -2.4624    0.0000 C   0  0  0  0  0  0  0  0  0  0  0  0
  1  2  1  0
  2  3  1  0
  2  4  1  0
  4  5  1  0
  5  6  1  0
  6  7  1  0
  7  8  1  0
  8  9  1  0
  9 10  1  0
 10 11  1  0
 11 12  1  0
 12 13  2  0
 12 14  1  0
 14 15  1  0
 15 16  2  0
 16 17  1  0
 17 18  2  0
 18 19  1  0
 19 20  1  0
 20 21  1  0
 21 22  2  0
 22 23  1  0
 23 24  1  0
 24 25  2  0
 24 26  1  0
 26 27  2  0
 27 28  1  0
 28 29  1  0
 29 30  1  0
 30 31  1  0
 19 32  2  0
 11  7  1  0
 32 15  1  0
 27 21  1  0
 31 26  1  0
M  END
$$$$

     RDKit          2D

 28 31  0  0  0  0  0  0  0  0999 V2000
   -8.5133   -1.4384    0.0000 C   0  0  0  0  0  0  0  0  0  0  0  0
   -7.2604   -0.6137    0.0000 N   0  0  0  0  0  0  0  0  0  0  0  0
   -7.3482    0.8838    0.0000 C   0  0  0  0  0  0  0  0  0  0  0  0
   -6.0954    1.7085    0.0000 C   0  0  0  0  0  0  0  0  0  0  0  0
   -4.7546    1.0359    0.0000 C   0  0  0  0  0  0  0  0  0  0  0  0
   -4.6668   -0.4615    0.0000 C   0  0  0  0  0  0  0  0  0  0  0  0
   -3.3261   -1.1342    0.0000 C   0  0  0  0  0  0  0  0  0  0  0  0
   -3.2382   -2.6316    0.0000 O   0  0  0  0  0  0  0  0  0  0  0  0
   -2.0732   -0.3094    0.0000 C   0  0  0  0  0  0  0  0  0  0  0  0
   -0.7325   -0.9821    0.0000 C   0  0  0  0  0  0  0  0  0  0  0  0
    0.5204   -0.1573    0.0000 C   0  0  0  0  0  0  0  0  0  0  0  0
    1.8612   -0.8299    0.0000 C   0  0  0  0  0  0  0  0  0  0  0  0
    3.1141   -0.0052    0.0000 C   0  0  0  0  0  0  0  0  0  0  0  0
    3.0262    1.4923    0.0000 N   0  0  0  0  0  0  0  0  0  0  0  0
    4.2791    2.3170    0.0000 N   0  0  0  0  0  0  0  0  0  0  0  0
    5.6198    1.6444    0.0000 C   0  0  0  0  0  0  0  0  0  0  0  0
    6.8727    2.4692    0.0000 O   0  0  0  0  0  0  0  0  0  0  0  0
    5.7077    0.1470    0.0000 C   0  0  0  0  0  0  0  0  0  0  0  0
    4.4548   -0.6778    0.0000 C   0  0  0  0  0  0  0  0  0  0  0  0
    4.5426   -2.1752    0.0000 C   0  0  0  0  0  0  0  0  0  0  0  0
    5.8833   -2.8479    0.0000 C   0  0  0  0  0  0  0  0  0  0  0  0
    7.1362   -2.0231    0.0000 C   0  0  0  0  0  0  0  0  0  0  0  0
    7.0484   -0.5257    0.0000 C   0  0  0  0  0  0  0  0  0  0  0  0
    0.4326    1.3401    0.0000 C   0  0  0  0  0  0  0  0  0  0  0  0
   -0.9081    2.0128    0.0000 C   0  0  0  0  0  0  0  0  0  0  0  0
   -2.1610    1.1880    0.0000 C   0  0  0  0  0  0  0  0  0  0  0  0
   -3.5017    1.8607    0.0000 F   0  0  0  0  0  0  0  0  0  0  0  0
   -5.9197   -1.2863    0.0000 C   0  0  0  0  0  0  0  0  0  0  0  0
  1  2  1  0
  2  3  1  0
  3  4  1  0
  4  5  1  0
  5  6  1  0
  6  7  1  0
  7  8  2  0
  7  9  1  0
  9 10  2  0
 10 11  1  0
 11 12  1  0
 12 13  1  0
 13 14  2  0
 14 15  1  0
 15 16  1  0
 16 17  2  0
 16 18  1  0
 18 19  2  0
 19 20  1  0
 20 21  1  0
 21 22  1  0
 22 23  1  0
 11 24  2  0
 24 25  1  0
 25 26  2  0
 26 27  1  0
  6 28  1  0
 28  2  1  0
 26  9  1  0
 19 13  1  0
 23 18  1  0
M  END
$$$$

     RDKit          2D

 24 27  0  0  0  0  0  0  0  0999 V2000
   -6.4367   -2.6103    0.0000 N   0  0  0  0  0  0  0  0  0  0  0  0
   -5.0621   -2.0100    0.0000 C   0  0  0  0  0  0  0  0  0  0  0  0
   -3.8549   -2.9003    0.0000 O   0  0  0  0  0  0  0  0  0  0  0  0
   -4.8947   -0.5194    0.0000 C   0  0  0  0  0  0  0  0  0  0  0  0
   -6.1019    0.3710    0.0000 C   0  0  0  0  0  0  0  0  0  0  0  0
   -5.9344    1.8616    0.0000 C   0  0  0  0  0  0  0  0  0  0  0  0
   -4.5598    2.4619    0.0000 C   0  0  0  0  0  0  0  0  0  0  0  0
   -3.3526    1.5716    0.0000 C   0  0  0  0  0  0  0  0  0  0  0  0
   -1.8832    1.8729    0.0000 N   0  0  0  0  0  0  0  0  0  0  0  0
   -1.1425    0.5686    0.0000 C   0  0  0  0  0  0  0  0  0  0  0  0
    0.3482    0.4011    0.0000 C   0  0  0  0  0  0  0  0  0  0  0  0
    0.9485   -0.9735    0.0000 C   0  0  0  0  0  0  0  0  0  0  0  0
    2.4391   -1.1409    0.0000 C   0  0  0  0  0  0  0  0  0  0  0  0
    3.3294    0.0663    0.0000 C   0  0  0  0  0  0  0  0  0  0  0  0
    4.8200   -0.1012    0.0000 C   0  0  0  0  0  0  0  0  0  0  0  0
    5.4203   -1.4758    0.0000 N   0  0  0  0  0  0  0  0  0  0  0  0
    6.9110   -1.6433    0.0000 C   0  0  0  0  0  0  0  0  0  0  0  0
    7.8013   -0.4361    0.0000 C   0  0  0  0  0  0  0  0  0  0  0  0
    7.2010    0.9386    0.0000 C   0  0  0  0  0  0  0  0  0  0  0  0
    5.7104    1.1060    0.0000 N   0  0  0  0  0  0  0  0  0  0  0  0
    2.7291    1.4409    0.0000 C   0  0  0  0  0  0  0  0  0  0  0  0
    1.2385    1.6083    0.0000 C   0  0  0  0  0  0  0  0  0  0  0  0
   -2.1541   -0.5389    0.0000 N   0  0  0  0  0  0  0  0  0  0  0  0
   -3.5200    0.0809    0.0000 C   0  0  0  0  0  0  0  0  0  0  0  0
  1  2  1  0
  2  3  2  0
  2  4  1  0
  4  5  2  0
  5  6  1  0
  6  7  2  0
  7  8  1  0
  8  9  1  0
  9 10  1  0
 10 11  1  0
 11 12  2  0
 12 13  1  0
 13 14  2  0
 14 15  1  0
 15 16  1  0
 16 17  1  0
 17 18  1  0
 18 19  1  0
 19 20  1  0
 14 21  1  0
 21 22  2  0
 10 23  2  0
 23 24  1  0
 24  4  1  0
 24  8  2  0
 22 11  1  0
 20 15  1  0
M  END
$$$$

     RDKit          2D

 21 23  0  0  0  0  0  0  0  0999 V2000
   -7.4559    1.7540    0.0000 C   0  0  0  0  0  0  0  0  0  0  0  0
   -6.1588    1.0007    0.0000 C   0  0  0  0  0  0  0  0  0  0  0  0
   -6.1627   -0.4993    0.0000 C   0  0  0  0  0  0  0  0  0  0  0  0
   -7.4637   -1.2460    0.0000 C   0  0  0  0  0  0  0  0  0  0  0  0
   -4.8656   -1.2527    0.0000 O   0  0  0  0  0  0  0  0  0  0  0  0
   -3.5646   -0.5060    0.0000 C   0  0  0  0  0  0  0  0  0  0  0  0
   -2.0646   -0.5099    0.0000 C   0  0  0  0  0  0  0  0  0  0  0  0
   -0.7676   -1.2633    0.0000 N   0  0  0  0  0  0  0  0  0  0  0  0
    0.5334   -0.5166    0.0000 C   0  0  0  0  0  0  0  0  0  0  0  0
    1.9022   -1.1303    0.0000 N   0  0  0  0  0  0  0  0  0  0  0  0
    2.9087   -0.0182    0.0000 C   0  0  0  0  0  0  0  0  0  0  0  0
    4.4087   -0.0220    0.0000 C   0  0  0  0  0  0  0  0  0  0  0  0
    5.1554   -1.3230    0.0000 C   0  0  0  0  0  0  0  0  0  0  0  0
    6.6554   -1.3269    0.0000 N   0  0  0  0  0  0  0  0  0  0  0  0
    4.4020   -2.6201    0.0000 O   0  0  0  0  0  0  0  0  0  0  0  0
    5.1621    1.2751    0.0000 C   0  0  0  0  0  0  0  0  0  0  0  0
    4.4154    2.5760    0.0000 C   0  0  0  0  0  0  0  0  0  0  0  0
    2.9154    2.5799    0.0000 C   0  0  0  0  0  0  0  0  0  0  0  0
    2.1621    1.2828    0.0000 C   0  0  0  0  0  0  0  0  0  0  0  0
    0.6941    0.9747    0.0000 N   0  0  0  0  0  0  0  0  0  0  0  0
   -2.8113    0.7911    0.0000 C   0  0  0  0  0  0  0  0  0  0  0  0
  1  2  1  0
  2  3  1  0
  3  4  1  0
  3  5  1  0
  5  6  1  0
  6  7  2  0
  7  8  1  0
  8  9  1  0
  9 10  2  0
 10 11  1  0
 11 12  2  0
 12 13  1  0
 13 14  1  0
 13 15  2  0
 12 16  1  0
 16 17  2  0
 17 18  1  0
 18 19  2  0
 19 20  1  0
  7 21  1  0
 21  6  1  0
 20  9  1  0
 19 11  1  0
M  END
$$$$

     RDKit          2D

 20 22  0  0  0  0  0  0  0  0999 V2000
   -5.0006   -2.5300    0.0000 N   0  0  0  0  0  0  0  0  0  0  0  0
   -3.6155   -1.9541    0.0000 C   0  0  0  0  0  0  0  0  0  0  0  0
   -2.4243   -2.8657    0.0000 O   0  0  0  0  0  0  0  0  0  0  0  0
   -3.4217   -0.4667    0.0000 C   0  0  0  0  0  0  0  0  0  0  0  0
   -4.6129    0.4449    0.0000 C   0  0  0  0  0  0  0  0  0  0  0  0
   -4.4191    1.9323    0.0000 C   0  0  0  0  0  0  0  0  0  0  0  0
   -3.0341    2.5081    0.0000 C   0  0  0  0  0  0  0  0  0  0  0  0
   -1.8428    1.5966    0.0000 C   0  0  0  0  0  0  0  0  0  0  0  0
   -0.3683    1.8719    0.0000 N   0  0  0  0  0  0  0  0  0  0  0  0
    0.3492    0.5546    0.0000 C   0  0  0  0  0  0  0  0  0  0  0  0
    1.8366    0.3607    0.0000 N   0  0  0  0  0  0  0  0  0  0  0  0
    2.6566    1.6168    0.0000 C   0  0  0  0  0  0  0  0  0  0  0  0
    4.1499    1.7588    0.0000 C   0  0  0  0  0  0  0  0  0  0  0  0
    5.1919    0.6798    0.0000 C   0  0  0  0  0  0  0  0  0  0  0  0
    4.9981   -0.8076    0.0000 C   0  0  0  0  0  0  0  0  0  0  0  0
    6.2541   -1.6276    0.0000 O   0  0  0  0  0  0  0  0  0  0  0  0
    3.7143   -1.5834    0.0000 C   0  0  0  0  0  0  0  0  0  0  0  0
    2.3073   -1.0635    0.0000 C   0  0  0  0  0  0  0  0  0  0  0  0
   -0.6819   -0.5348    0.0000 N   0  0  0  0  0  0  0  0  0  0  0  0
   -2.0367    0.1091    0.0000 C   0  0  0  0  0  0  0  0  0  0  0  0
  1  2  1  0
  2  3  2  0
  2  4  1  0
  4  5  2  0
  5  6  1  0
  6  7  2  0
  7  8  1  0
  8  9  1  0
  9 10  1  0
 10 11  1  0
 11 12  1  0
 12 13  1  0
 13 14  1  0
 14 15  1  0
 15 16  2  0
 15 17  1  0
 17 18  1  0
 10 19  2  0
 19 20  1  0
 20  4  1  0
 20  8  2  0
 18 11  1  0
M  END
$$$$

     RDKit          2D

 32 35  0  0  0  0  0  0  0  0999 V2000
   -2.1696    2.4926    0.0000 C   0  0  0  0  0  0  0  0  0  0  0  0
   -2.3157    0.9997    0.0000 N   0  0  0  0  0  0  0  0  0  0  0  0
   -3.6816    0.3798    0.0000 C   0  0  0  0  0  0  0  0  0  0  0  0
   -4.9014    1.2528    0.0000 C   0  0  0  0  0  0  0  0  0  0  0  0
   -6.2673    0.6328    0.0000 O   0  0  0  0  0  0  0  0  0  0  0  0
   -7.4872    1.5058    0.0000 C   0  0  0  0  0  0  0  0  0  0  0  0
   -8.8531    0.8859    0.0000 C   0  0  0  0  0  0  0  0  0  0  0  0
  -10.2573    1.4134    0.0000 C   0  0  0  0  0  0  0  0  0  0  0  0
  -10.7848    0.0092    0.0000 C   0  0  0  0  0  0  0  0  0  0  0  0
   -9.3806   -0.5183    0.0000 C   0  0  0  0  0  0  0  0  0  0  0  0
   -1.0959    0.1268    0.0000 C   0  0  0  0  0  0  0  0  0  0  0  0
    0.2700    0.7467    0.0000 O   0  0  0  0  0  0  0  0  0  0  0  0
   -1.2420   -1.3661    0.0000 C   0  0  0  0  0  0  0  0  0  0  0  0
   -2.6079   -1.9860    0.0000 O   0  0  0  0  0  0  0  0  0  0  0  0
   -0.0222   -2.2391    0.0000 C   0  0  0  0  0  0  0  0  0  0  0  0
   -0.1683   -3.7319    0.0000 C   0  0  0  0  0  0  0  0  0  0  0  0
    1.0515   -4.6049    0.0000 C   0  0  0  0  0  0  0  0  0  0  0  0
    2.4175   -3.9850    0.0000 C   0  0  0  0  0  0  0  0  0  0  0  0
    2.5635   -2.4921    0.0000 C   0  0  0  0  0  0  0  0  0  0  0  0
    3.9295   -1.8722    0.0000 C   0  0  0  0  0  0  0  0  0  0  0  0
    4.0756   -0.3793    0.0000 C   0  0  0  0  0  0  0  0  0  0  0  0
    2.8557    0.4936    0.0000 N   0  0  0  0  0  0  0  0  0  0  0  0
    3.0018    1.9865    0.0000 N   0  0  0  0  0  0  0  0  0  0  0  0
    4.3677    2.6064    0.0000 C   0  0  0  0  0  0  0  0  0  0  0  0
    4.5138    4.0993    0.0000 O   0  0  0  0  0  0  0  0  0  0  0  0
    5.5876    1.7334    0.0000 C   0  0  0  0  0  0  0  0  0  0  0  0
    5.4415    0.2406    0.0000 C   0  0  0  0  0  0  0  0  0  0  0  0
    6.6613   -0.6324    0.0000 C   0  0  0  0  0  0  0  0  0  0  0  0
    8.0272   -0.0125    0.0000 C   0  0  0  0  0  0  0  0  0  0  0  0
    8.1733    1.4804    0.0000 C   0  0  0  0  0  0  0  0  0  0  0  0
    6.9535    2.3534    0.0000 C   0  0  0  0  0  0  0  0  0  0  0  0
    1.3437   -1.6192    0.0000 C   0  0  0  0  0  0  0  0  0  0  0  0
  1  2  1  0
  2  3  1  0
  3  4  1  0
  4  5  1  0
  5  6  1  0
  6  7  1  0
  7  8  1  0
  8  9  1  0
  9 10  1  0
  2 11  1  0
 11 12  2  0
 11 13  1  0
 13 14  2  0
 13 15  1  0
 15 16  2  0
 16 17  1  0
 17 18  2  0
 18 19  1  0
 19 20  1  0
 20 21  1  0
 21 22  2  0
 22 23  1  0
 23 24  1  0
 24 25  2  0
 24 26  1  0
 26 27  2  0
 27 28  1  0
 28 29  1  0
 29 30  1  0
 30 31  1  0
 19 32  2  0
 10  7  1  0
 32 15  1  0
 27 21  1  0
 31 26  1  0
M  END
$$$$

     RDKit          2D

 26 28  0  0  0  0  0  0  0  0999 V2000
   -8.9317    0.8432    0.0000 C   0  0  0  0  0  0  0  0  0  0  0  0
   -7.4617    1.1414    0.0000 C   0  0  0  0  0  0  0  0  0  0  0  0
   -6.4683    0.0175    0.0000 N   0  0  0  0  0  0  0  0  0  0  0  0
   -6.9451   -1.4048    0.0000 C   0  0  0  0  0  0  0  0  0  0  0  0
   -8.4151   -1.7030    0.0000 C   0  0  0  0  0  0  0  0  0  0  0  0
   -4.9983    0.3157    0.0000 C   0  0  0  0  0  0  0  0  0  0  0  0
   -4.5215    1.7379    0.0000 O   0  0  0  0  0  0  0  0  0  0  0  0
   -4.0050   -0.8083    0.0000 N   0  0  0  0  0  0  0  0  0  0  0  0
   -2.5349   -0.5101    0.0000 C   0  0  0  0  0  0  0  0  0  0  0  0
   -2.0582    0.9122    0.0000 C   0  0  0  0  0  0  0  0  0  0  0  0
   -0.5881    1.2104    0.0000 C   0  0  0  0  0  0  0  0  0  0  0  0
    0.4052    0.0864    0.0000 C   0  0  0  0  0  0  0  0  0  0  0  0
    1.8752    0.3847    0.0000 C   0  0  0  0  0  0  0  0  0  0  0  0
    2.9806   -0.6293    0.0000 N   0  0  0  0  0  0  0  0  0  0  0  0
    4.2865    0.1086    0.0000 C   0  0  0  0  0  0  0  0  0  0  0  0
    5.7087   -0.3682    0.0000 C   0  0  0  0  0  0  0  0  0  0  0  0
    6.0070   -1.8382    0.0000 C   0  0  0  0  0  0  0  0  0  0  0  0
    7.4292   -2.3150    0.0000 N   0  0  0  0  0  0  0  0  0  0  0  0
    4.8830   -2.8315    0.0000 O   0  0  0  0  0  0  0  0  0  0  0  0
    6.8327    0.6251    0.0000 C   0  0  0  0  0  0  0  0  0  0  0  0
    6.5345    2.0952    0.0000 C   0  0  0  0  0  0  0  0  0  0  0  0
    5.1123    2.5719    0.0000 C   0  0  0  0  0  0  0  0  0  0  0  0
    3.9883    1.5786    0.0000 C   0  0  0  0  0  0  0  0  0  0  0  0
    2.4980    1.7493    0.0000 N   0  0  0  0  0  0  0  0  0  0  0  0
   -0.0716   -1.3358    0.0000 C   0  0  0  0  0  0  0  0  0  0  0  0
   -1.5416   -1.6340    0.0000 C   0  0  0  0  0  0  0  0  0  0  0  0
  1  2  1  0
  2  3  1  0
  3  4  1  0
  4  5  1  0
  3  6  1  0
  6  7  2  0
  6  8  1  0
  8  9  1  0
  9 10  2  0
 10 11  1  0
 11 12  2  0
 12 13  1  0
 13 14  2  0
 14 15  1  0
 15 16  2  0
 16 17  1  0
 17 18  1  0
 17 19  2  0
 16 20  1  0
 20 21  2  0
 21 22  1  0
 22 23  2  0
 23 24  1  0
 12 25  1  0
 25 26  2  0
 26  9  1  0
 24 13  1  0
 23 15  1  0
M  END
$$$$

     RDKit          2D

 31 34  0  0  0  0  0  0  0  0999 V2000
   -8.8710   -1.8261    0.0000 C   0  0  0  0  0  0  0  0  0  0  0  0
   -7.6379   -0.9721    0.0000 C   0  0  0  0  0  0  0  0  0  0  0  0
   -6.4136   -1.8388    0.0000 C   0  0  0  0  0  0  0  0  0  0  0  0
   -4.9187   -1.7158    0.0000 C   0  0  0  0  0  0  0  0  0  0  0  0
   -3.8525   -0.6607    0.0000 N   0  0  0  0  0  0  0  0  0  0  0  0
   -2.4964   -1.3016    0.0000 C   0  0  0  0  0  0  0  0  0  0  0  0
   -2.3733   -2.7966    0.0000 O   0  0  0  0  0  0  0  0  0  0  0  0
   -1.2632   -0.4476    0.0000 C   0  0  0  0  0  0  0  0  0  0  0  0
    0.0930   -1.0886    0.0000 C   0  0  0  0  0  0  0  0  0  0  0  0
    1.3261   -0.2346    0.0000 C   0  0  0  0  0  0  0  0  0  0  0  0
    2.6823   -0.8755    0.0000 C   0  0  0  0  0  0  0  0  0  0  0  0
    3.9155   -0.0215    0.0000 C   0  0  0  0  0  0  0  0  0  0  0  0
    3.7924    1.4735    0.0000 N   0  0  0  0  0  0  0  0  0  0  0  0
    5.0256    2.3275    0.0000 N   0  0  0  0  0  0  0  0  0  0  0  0
    6.3818    1.6865    0.0000 C   0  0  0  0  0  0  0  0  0  0  0  0
    7.6149    2.5405    0.0000 O   0  0  0  0  0  0  0  0  0  0  0  0
    6.5048    0.1916    0.0000 C   0  0  0  0  0  0  0  0  0  0  0  0
    5.2716   -0.6624    0.0000 C   0  0  0  0  0  0  0  0  0  0  0  0
    5.3946   -2.1574    0.0000 N   0  0  0  0  0  0  0  0  0  0  0  0
    6.7508   -2.7983    0.0000 C   0  0  0  0  0  0  0  0  0  0  0  0
    7.9840   -1.9443    0.0000 C   0  0  0  0  0  0  0  0  0  0  0  0
    7.8609   -0.4494    0.0000 C   0  0  0  0  0  0  0  0  0  0  0  0
    1.2031    1.2604    0.0000 C   0  0  0  0  0  0  0  0  0  0  0  0
   -0.1530    1.9013    0.0000 C   0  0  0  0  0  0  0  0  0  0  0  0
   -1.3862    1.0473    0.0000 C   0  0  0  0  0  0  0  0  0  0  0  0
   -2.7424    1.6883    0.0000 F   0  0  0  0  0  0  0  0  0  0  0  0
   -3.7141    0.8329    0.0000 C   0  0  0  0  0  0  0  0  0  0  0  0
   -4.5681    2.0661    0.0000 C   0  0  0  0  0  0  0  0  0  0  0  0
   -6.0149    2.4618    0.0000 C   0  0  0  0  0  0  0  0  0  0  0  0
   -7.3776    1.8349    0.0000 C   0  0  0  0  0  0  0  0  0  0  0  0
   -8.0186    0.4788    0.0000 C   0  0  0  0  0  0  0  0  0  0  0  0
  1  2  1  0
  2  3  1  0
  3  4  2  0
  4  5  1  0
  5  6  1  0
  6  7  2  0
  6  8  1  0
  8  9  2  0
  9 10  1  0
 10 11  1  0
 11 12  1  0
 12 13  2  0
 13 14  1  0
 14 15  1  0
 15 16  2  0
 15 17  1  0
 17 18  2  0
 18 19  1  0
 19 20  1  0
 20 21  1  0
 21 22  1  0
 10 23  2  0
 23 24  1  0
 24 25  2  0
 25 26  1  0
  5 27  1  0
 27 28  1  0
 28 29  1  0
 29 30  1  0
 30 31  1  0
 31  2  1  0
 25  8  1  0
 18 12  1  0
 22 17  1  0
M  END
$$$$

     RDKit          2D

 27 30  0  0  0  0  0  0  0  0999 V2000
   -6.3463    3.8457    0.0000 C   0  0  0  0  0  0  0  0  0  0  0  0
   -5.0508    3.0897    0.0000 N   0  0  0  0  0  0  0  0  0  0  0  0
   -3.7483    3.8336    0.0000 C   0  0  0  0  0  0  0  0  0  0  0  0
   -5.0578    1.5897    0.0000 C   0  0  0  0  0  0  0  0  0  0  0  0
   -3.7623    0.8336    0.0000 C   0  0  0  0  0  0  0  0  0  0  0  0
   -3.0184   -0.4690    0.0000 C   0  0  0  0  0  0  0  0  0  0  0  0
   -3.0255   -1.9689    0.0000 C   0  0  0  0  0  0  0  0  0  0  0  0
   -4.3280   -2.7128    0.0000 O   0  0  0  0  0  0  0  0  0  0  0  0
   -1.7300   -2.7250    0.0000 C   0  0  0  0  0  0  0  0  0  0  0  0
   -1.7370   -4.2250    0.0000 C   0  0  0  0  0  0  0  0  0  0  0  0
   -0.4415   -4.9811    0.0000 C   0  0  0  0  0  0  0  0  0  0  0  0
    0.8610   -4.2372    0.0000 C   0  0  0  0  0  0  0  0  0  0  0  0
    0.8681   -2.7372    0.0000 C   0  0  0  0  0  0  0  0  0  0  0  0
    2.1706   -1.9933    0.0000 C   0  0  0  0  0  0  0  0  0  0  0  0
    2.1777   -0.4933    0.0000 C   0  0  0  0  0  0  0  0  0  0  0  0
    0.8822    0.2627    0.0000 N   0  0  0  0  0  0  0  0  0  0  0  0
    0.8892    1.7627    0.0000 N   0  0  0  0  0  0  0  0  0  0  0  0
    2.1917    2.5066    0.0000 C   0  0  0  0  0  0  0  0  0  0  0  0
    2.1988    4.0066    0.0000 O   0  0  0  0  0  0  0  0  0  0  0  0
    3.4872    1.7505    0.0000 C   0  0  0  0  0  0  0  0  0  0  0  0
    3.4802    0.2506    0.0000 C   0  0  0  0  0  0  0  0  0  0  0  0
    4.7757   -0.5055    0.0000 C   0  0  0  0  0  0  0  0  0  0  0  0
    6.0782    0.2384    0.0000 C   0  0  0  0  0  0  0  0  0  0  0  0
    6.0853    1.7383    0.0000 C   0  0  0  0  0  0  0  0  0  0  0  0
    4.7898    2.4944    0.0000 C   0  0  0  0  0  0  0  0  0  0  0  0
   -0.4274   -1.9811    0.0000 C   0  0  0  0  0  0  0  0  0  0  0  0
   -2.2623    0.8265    0.0000 N   0  0  0  0  0  0  0  0  0  0  0  0
  1  2  1  0
  2  3  1  0
  2  4  1  0
  4  5  1  0
  5  6  2  0
  6  7  1  0
  7  8  2  0
  7  9  1  0
  9 10  2  0
 10 11  1  0
 11 12  2  0
 12 13  1  0
 13 14  1  0
 14 15  1  0
 15 16  2  0
 16 17  1  0
 17 18  1  0
 18 19  2  0
 18 20  1  0
 20 21  2  0
 21 22  1  0
 22 23  1  0
 23 24  1  0
 24 25  1  0
 13 26  2  0
  6 27  1  0
 27  5  1  0
 26  9  1  0
 21 15  1  0
 25 20  1  0
M  END
$$$$

     RDKit          2D

 21 23  0  0  0  0  0  0  0  0999 V2000
   -6.7851    0.8261    0.0000 C   0  0  0  0  0  0  0  0  0  0  0  0
   -5.8551   -0.3508    0.0000 C   0  0  0  0  0  0  0  0  0  0  0  0
   -6.4093   -1.7446    0.0000 C   0  0  0  0  0  0  0  0  0  0  0  0
   -4.3709   -0.1338    0.0000 N   0  0  0  0  0  0  0  0  0  0  0  0
   -3.8167    1.2601    0.0000 C   0  0  0  0  0  0  0  0  0  0  0  0
   -2.3325    1.4771    0.0000 C   0  0  0  0  0  0  0  0  0  0  0  0
   -1.4024    0.3003    0.0000 C   0  0  0  0  0  0  0  0  0  0  0  0
    0.0818    0.5173    0.0000 C   0  0  0  0  0  0  0  0  0  0  0  0
    1.1298   -0.5559    0.0000 N   0  0  0  0  0  0  0  0  0  0  0  0
    2.4743    0.1091    0.0000 C   0  0  0  0  0  0  0  0  0  0  0  0
    3.8681   -0.4451    0.0000 C   0  0  0  0  0  0  0  0  0  0  0  0
    4.0852   -1.9293    0.0000 C   0  0  0  0  0  0  0  0  0  0  0  0
    5.4790   -2.4835    0.0000 N   0  0  0  0  0  0  0  0  0  0  0  0
    2.9083   -2.8593    0.0000 O   0  0  0  0  0  0  0  0  0  0  0  0
    5.0450    0.4850    0.0000 C   0  0  0  0  0  0  0  0  0  0  0  0
    4.8280    1.9692    0.0000 C   0  0  0  0  0  0  0  0  0  0  0  0
    3.4341    2.5234    0.0000 C   0  0  0  0  0  0  0  0  0  0  0  0
    2.2573    1.5933    0.0000 C   0  0  0  0  0  0  0  0  0  0  0  0
    0.7786    1.8456    0.0000 N   0  0  0  0  0  0  0  0  0  0  0  0
   -1.9566   -1.0936    0.0000 C   0  0  0  0  0  0  0  0  0  0  0  0
   -3.4408   -1.3106    0.0000 C   0  0  0  0  0  0  0  0  0  0  0  0
  1  2  1  0
  2  3  1  0
  2  4  1  0
  4  5  1  0
  5  6  1  0
  6  7  1  0
  7  8  1  0
  8  9  2  0
  9 10  1  0
 10 11  2  0
 11 12  1  0
 12 13  1  0
 12 14  2  0
 11 15  1  0
 15 16  2  0
 16 17  1  0
 17 18  2  0
 18 19  1  0
  7 20  1  0
 20 21  1  0
 21  4  1  0
 19  8  1  0
 18 10  1  0
M  END
$$$$

     RDKit          2D

 24 27  0  0  0  0  0  0  0  0999 V2000
   -6.4367   -2.6103    0.0000 N   0  0  0  0  0  0  0  0  0  0  0  0
   -5.0621   -2.0100    0.0000 C   0  0  0  0  0  0  0  0  0  0  0  0
   -3.8549   -2.9003    0.0000 O   0  0  0  0  0  0  0  0  0  0  0  0
   -4.8947   -0.5194    0.0000 C   0  0  0  0  0  0  0  0  0  0  0  0
   -6.1019    0.3710    0.0000 C   0  0  0  0  0  0  0  0  0  0  0  0
   -5.9344    1.8616    0.0000 C   0  0  0  0  0  0  0  0  0  0  0  0
   -4.5598    2.4619    0.0000 C   0  0  0  0  0  0  0  0  0  0  0  0
   -3.3526    1.5716    0.0000 C   0  0  0  0  0  0  0  0  0  0  0  0
   -1.8832    1.8729    0.0000 N   0  0  0  0  0  0  0  0  0  0  0  0
   -1.1425    0.5686    0.0000 C   0  0  0  0  0  0  0  0  0  0  0  0
    0.3482    0.4011    0.0000 C   0  0  0  0  0  0  0  0  0  0  0  0
    0.9485   -0.9735    0.0000 C   0  0  0  0  0  0  0  0  0  0  0  0
    2.4391   -1.1409    0.0000 C   0  0  0  0  0  0  0  0  0  0  0  0
    3.3294    0.0663    0.0000 C   0  0  0  0  0  0  0  0  0  0  0  0
    4.8200   -0.1012    0.0000 C   0  0  0  0  0  0  0  0  0  0  0  0
    5.4203   -1.4758    0.0000 C   0  0  0  0  0  0  0  0  0  0  0  0
    6.9110   -1.6433    0.0000 C   0  0  0  0  0  0  0  0  0  0  0  0
    7.8013   -0.4361    0.0000 C   0  0  0  0  0  0  0  0  0  0  0  0
    7.2010    0.9386    0.0000 C   0  0  0  0  0  0  0  0  0  0  0  0
    5.7104    1.1060    0.0000 C   0  0  0  0  0  0  0  0  0  0  0  0
    2.7291    1.4409    0.0000 C   0  0  0  0  0  0  0  0  0  0  0  0
    1.2385    1.6083    0.0000 C   0  0  0  0  0  0  0  0  0  0  0  0
   -2.1541   -0.5389    0.0000 N   0  0  0  0  0  0  0  0  0  0  0  0
   -3.5200    0.0809    0.0000 C   0  0  0  0  0  0  0  0  0  0  0  0
  1  2  1  0
  2  3  2  0
  2  4  1  0
  4  5  2  0
  5  6  1  0
  6  7  2  0
  7  8  1  0
  8  9  1  0
  9 10  1  0
 10 11  1  0
 11 12  2  0
 12 13  1  0
 13 14  2  0
 14 15  1  0
 15 16  2  0
 16 17  1  0
 17 18  2  0
 18 19  1  0
 19 20  2  0
 14 21  1  0
 21 22  2  0
 10 23  2  0
 23 24  1  0
 24  4  1  0
 24  8  2  0
 22 11  1  0
 20 15  1  0
M  END
$$$$

     RDKit          2D

 24 26  0  0  0  0  0  0  0  0999 V2000
   -6.3791    2.4471    0.0000 C   0  0  0  0  0  0  0  0  0  0  0  0
   -5.0745    1.7070    0.0000 N   0  0  0  0  0  0  0  0  0  0  0  0
   -3.7811    2.4668    0.0000 C   0  0  0  0  0  0  0  0  0  0  0  0
   -5.0631    0.2070    0.0000 C   0  0  0  0  0  0  0  0  0  0  0  0
   -6.3564   -0.5528    0.0000 O   0  0  0  0  0  0  0  0  0  0  0  0
   -3.7584   -0.5331    0.0000 C   0  0  0  0  0  0  0  0  0  0  0  0
   -3.8591   -2.0297    0.0000 C   0  0  0  0  0  0  0  0  0  0  0  0
   -2.7519   -3.0416    0.0000 C   0  0  0  0  0  0  0  0  0  0  0  0
   -1.2704   -2.8068    0.0000 C   0  0  0  0  0  0  0  0  0  0  0  0
   -0.5302   -1.5021    0.0000 C   0  0  0  0  0  0  0  0  0  0  0  0
    0.9664   -1.6029    0.0000 C   0  0  0  0  0  0  0  0  0  0  0  0
    1.8019   -0.3571    0.0000 C   0  0  0  0  0  0  0  0  0  0  0  0
    1.1409    0.9893    0.0000 N   0  0  0  0  0  0  0  0  0  0  0  0
    1.9765    2.2351    0.0000 N   0  0  0  0  0  0  0  0  0  0  0  0
    3.4731    2.1343    0.0000 C   0  0  0  0  0  0  0  0  0  0  0  0
    4.3086    3.3800    0.0000 O   0  0  0  0  0  0  0  0  0  0  0  0
    4.1341    0.7878    0.0000 C   0  0  0  0  0  0  0  0  0  0  0  0
    3.2986   -0.4579    0.0000 C   0  0  0  0  0  0  0  0  0  0  0  0
    3.9596   -1.8044    0.0000 C   0  0  0  0  0  0  0  0  0  0  0  0
    5.4562   -1.9051    0.0000 C   0  0  0  0  0  0  0  0  0  0  0  0
    6.2918   -0.6594    0.0000 C   0  0  0  0  0  0  0  0  0  0  0  0
    5.6307    0.6871    0.0000 C   0  0  0  0  0  0  0  0  0  0  0  0
   -1.0888   -0.1100    0.0000 C   0  0  0  0  0  0  0  0  0  0  0  0
   -2.5255    0.3213    0.0000 S   0  0  0  0  0  0  0  0  0  0  0  0
  1  2  1  0
  2  3  1  0
  2  4  1  0
  4  5  2  0
  4  6  1  0
  6  7  2  0
  7  8  1  0
  8  9  2  0
  9 10  1  0
 10 11  1  0
 11 12  1  0
 12 13  2  0
 13 14  1  0
 14 15  1  0
 15 16  2  0
 15 17  1  0
 17 18  2  0
 18 19  1  0
 19 20  1  0
 20 21  1  0
 21 22  1  0
 10 23  2  0
 23 24  1  0
 24  6  1  0
 18 12  1  0
 22 17  1  0
M  END
$$$$

     RDKit          2D

 29 32  0  0  0  0  0  0  0  0999 V2000
   -8.1993    1.6585    0.0000 C   0  0  0  0  0  0  0  0  0  0  0  0
   -6.7054    1.5233    0.0000 N   0  0  0  0  0  0  0  0  0  0  0  0
   -6.1791    0.1186    0.0000 C   0  0  0  0  0  0  0  0  0  0  0  0
   -4.7528   -0.3457    0.0000 C   0  0  0  0  0  0  0  0  0  0  0  0
   -3.5005    0.4800    0.0000 C   0  0  0  0  0  0  0  0  0  0  0  0
   -2.2132   -0.2901    0.0000 N   0  0  0  0  0  0  0  0  0  0  0  0
   -2.2365   -1.7899    0.0000 C   0  0  0  0  0  0  0  0  0  0  0  0
   -3.5470   -2.5196    0.0000 O   0  0  0  0  0  0  0  0  0  0  0  0
   -0.9492   -2.5599    0.0000 C   0  0  0  0  0  0  0  0  0  0  0  0
   -0.9725   -4.0597    0.0000 C   0  0  0  0  0  0  0  0  0  0  0  0
    0.3148   -4.8298    0.0000 C   0  0  0  0  0  0  0  0  0  0  0  0
    1.6253   -4.1000    0.0000 C   0  0  0  0  0  0  0  0  0  0  0  0
    1.6485   -2.6002    0.0000 C   0  0  0  0  0  0  0  0  0  0  0  0
    2.9590   -1.8704    0.0000 C   0  0  0  0  0  0  0  0  0  0  0  0
    2.9823   -0.3706    0.0000 C   0  0  0  0  0  0  0  0  0  0  0  0
    1.6950    0.3994    0.0000 N   0  0  0  0  0  0  0  0  0  0  0  0
    1.7183    1.8993    0.0000 N   0  0  0  0  0  0  0  0  0  0  0  0
    3.0288    2.6290    0.0000 C   0  0  0  0  0  0  0  0  0  0  0  0
    3.0520    4.1289    0.0000 O   0  0  0  0  0  0  0  0  0  0  0  0
    4.3161    1.8590    0.0000 C   0  0  0  0  0  0  0  0  0  0  0  0
    4.2928    0.3592    0.0000 C   0  0  0  0  0  0  0  0  0  0  0  0
    5.5801   -0.4109    0.0000 C   0  0  0  0  0  0  0  0  0  0  0  0
    6.8906    0.3189    0.0000 C   0  0  0  0  0  0  0  0  0  0  0  0
    6.9138    1.8187    0.0000 C   0  0  0  0  0  0  0  0  0  0  0  0
    5.6266    2.5888    0.0000 C   0  0  0  0  0  0  0  0  0  0  0  0
    0.3613   -1.8302    0.0000 C   0  0  0  0  0  0  0  0  0  0  0  0
   -3.3652    1.9739    0.0000 N   0  0  0  0  0  0  0  0  0  0  0  0
   -4.4489    3.0111    0.0000 C   0  0  0  0  0  0  0  0  0  0  0  0
   -5.9354    2.8105    0.0000 N   0  0  0  0  0  0  0  0  0  0  0  0
  1  2  1  0
  2  3  1  0
  3  4  2  0
  4  5  1  0
  5  6  1  0
  6  7  1  0
  7  8  2  0
  7  9  1  0
  9 10  2  0
 10 11  1  0
 11 12  2  0
 12 13  1  0
 13 14  1  0
 14 15  1  0
 15 16  2  0
 16 17  1  0
 17 18  1  0
 18 19  2  0
 18 20  1  0
 20 21  2  0
 21 22  1  0
 22 23  1  0
 23 24  1  0
 24 25  1  0
 13 26  2  0
  5 27  2  0
 27 28  1  0
 28 29  2  0
 29  2  1  0
 26  9  1  0
 21 15  1  0
 25 20  1  0
M  END
$$$$

     RDKit          2D

 26 29  0  0  0  0  0  0  0  0999 V2000
   -6.4574   -2.8695    0.0000 N   0  0  0  0  0  0  0  0  0  0  0  0
   -5.1450   -2.1433    0.0000 C   0  0  0  0  0  0  0  0  0  0  0  0
   -3.8598   -2.9168    0.0000 O   0  0  0  0  0  0  0  0  0  0  0  0
   -5.1176   -0.6435    0.0000 C   0  0  0  0  0  0  0  0  0  0  0  0
   -6.4028    0.1300    0.0000 C   0  0  0  0  0  0  0  0  0  0  0  0
   -6.3755    1.6298    0.0000 C   0  0  0  0  0  0  0  0  0  0  0  0
   -5.0630    2.3560    0.0000 C   0  0  0  0  0  0  0  0  0  0  0  0
   -3.7778    1.5824    0.0000 C   0  0  0  0  0  0  0  0  0  0  0  0
   -2.3430    2.0199    0.0000 N   0  0  0  0  0  0  0  0  0  0  0  0
   -1.4836    0.7905    0.0000 C   0  0  0  0  0  0  0  0  0  0  0  0
    0.0161    0.7632    0.0000 C   0  0  0  0  0  0  0  0  0  0  0  0
    0.7424   -0.5493    0.0000 C   0  0  0  0  0  0  0  0  0  0  0  0
    2.2421   -0.5766    0.0000 C   0  0  0  0  0  0  0  0  0  0  0  0
    3.0156    0.7085    0.0000 N   0  0  0  0  0  0  0  0  0  0  0  0
    4.5154    0.6812    0.0000 N   0  0  0  0  0  0  0  0  0  0  0  0
    5.4190    1.8785    0.0000 C   0  0  0  0  0  0  0  0  0  0  0  0
    6.8369    1.3890    0.0000 N   0  0  0  0  0  0  0  0  0  0  0  0
    6.8096   -0.1107    0.0000 C   0  0  0  0  0  0  0  0  0  0  0  0
    5.3748   -0.5482    0.0000 C   0  0  0  0  0  0  0  0  0  0  0  0
    4.8854   -1.9661    0.0000 C   0  0  0  0  0  0  0  0  0  0  0  0
    5.8686   -3.0989    0.0000 O   0  0  0  0  0  0  0  0  0  0  0  0
    3.4127   -2.2512    0.0000 F   0  0  0  0  0  0  0  0  0  0  0  0
    2.2894    2.0210    0.0000 C   0  0  0  0  0  0  0  0  0  0  0  0
    0.7897    2.0483    0.0000 C   0  0  0  0  0  0  0  0  0  0  0  0
   -2.3872   -0.4068    0.0000 N   0  0  0  0  0  0  0  0  0  0  0  0
   -3.8051    0.0827    0.0000 C   0  0  0  0  0  0  0  0  0  0  0  0
  1  2  1  0
  2  3  2  0
  2  4  1  0
  4  5  2  0
  5  6  1  0
  6  7  2  0
  7  8  1  0
  8  9  1  0
  9 10  1  0
 10 11  1  0
 11 12  1  0
 12 13  1  0
 13 14  1  0
 14 15  1  0
 15 16  1  0
 16 17  2  0
 17 18  1  0
 18 19  2  0
 19 20  1  0
 20 21  2  0
 20 22  1  0
 14 23  1  0
 23 24  1  0
 10 25  2  0
 25 26  1  0
 26  4  1  0
 26  8  2  0
 24 11  1  0
 19 15  1  0
M  END
$$$$

     RDKit          2D

 19 21  0  0  0  0  0  0  0  0999 V2000
   -6.9790    0.2524    0.0000 C   0  0  0  0  0  0  0  0  0  0  0  0
   -5.4883    0.4189    0.0000 N   0  0  0  0  0  0  0  0  0  0  0  0
   -4.8871    1.7932    0.0000 C   0  0  0  0  0  0  0  0  0  0  0  0
   -4.5988   -0.7888    0.0000 C   0  0  0  0  0  0  0  0  0  0  0  0
   -3.1080   -0.6223    0.0000 C   0  0  0  0  0  0  0  0  0  0  0  0
   -2.5069    0.7519    0.0000 C   0  0  0  0  0  0  0  0  0  0  0  0
   -1.0161    0.9184    0.0000 C   0  0  0  0  0  0  0  0  0  0  0  0
   -0.1266   -0.2893    0.0000 C   0  0  0  0  0  0  0  0  0  0  0  0
    1.3642   -0.1228    0.0000 C   0  0  0  0  0  0  0  0  0  0  0  0
    2.2537   -1.3306    0.0000 C   0  0  0  0  0  0  0  0  0  0  0  0
    3.7445   -1.1641    0.0000 C   0  0  0  0  0  0  0  0  0  0  0  0
    5.2352   -0.9976    0.0000 C   0  0  0  0  0  0  0  0  0  0  0  0
    5.8364    0.3767    0.0000 C   0  0  0  0  0  0  0  0  0  0  0  0
    4.9468    1.5845    0.0000 C   0  0  0  0  0  0  0  0  0  0  0  0
    3.4561    1.4180    0.0000 C   0  0  0  0  0  0  0  0  0  0  0  0
    1.9653    1.2514    0.0000 C   0  0  0  0  0  0  0  0  0  0  0  0
    2.8549    0.0437    0.0000 C   0  0  0  0  0  0  0  0  0  0  0  0
   -0.7277   -1.6636    0.0000 C   0  0  0  0  0  0  0  0  0  0  0  0
   -2.2185   -1.8301    0.0000 C   0  0  0  0  0  0  0  0  0  0  0  0
  1  2  1  0
  2  3  1  0
  2  4  1  0
  4  5  1  0
  5  6  2  0
  6  7  1  0
  7  8  2  0
  8  9  1  0
  9 10  2  0
 10 11  1  0
 11 12  2  0
 12 13  1  0
 13 14  2  0
 14 15  1  0
 15 16  2  0
 15 17  1  0
  8 18  1  0
 18 19  2  0
 19  5  1  0
 16  9  1  0
 17 11  1  0
M  END
$$$$

     RDKit          2D

 19 21  0  0  0  0  0  0  0  0999 V2000
    4.0338   -2.6448    0.0000 O   0  0  0  0  0  0  0  0  0  0  0  0
    2.8280   -1.7526    0.0000 C   0  0  0  0  0  0  0  0  0  0  0  0
    1.4524   -2.3506    0.0000 N   0  0  0  0  0  0  0  0  0  0  0  0
    0.2467   -1.4584    0.0000 N   0  0  0  0  0  0  0  0  0  0  0  0
    0.4165    0.0320    0.0000 C   0  0  0  0  0  0  0  0  0  0  0  0
   -0.7892    0.9243    0.0000 C   0  0  0  0  0  0  0  0  0  0  0  0
   -2.1648    0.3262    0.0000 C   0  0  0  0  0  0  0  0  0  0  0  0
   -3.3706    1.2185    0.0000 C   0  0  0  0  0  0  0  0  0  0  0  0
   -4.7462    0.6204    0.0000 C   0  0  0  0  0  0  0  0  0  0  0  0
   -5.9520    1.5127    0.0000 Br  0  0  0  0  0  0  0  0  0  0  0  0
   -4.9161   -0.8700    0.0000 C   0  0  0  0  0  0  0  0  0  0  0  0
   -3.7103   -1.7622    0.0000 C   0  0  0  0  0  0  0  0  0  0  0  0
   -2.3347   -1.1642    0.0000 N   0  0  0  0  0  0  0  0  0  0  0  0
    1.7921    0.6301    0.0000 C   0  0  0  0  0  0  0  0  0  0  0  0
    2.9979   -0.2622    0.0000 C   0  0  0  0  0  0  0  0  0  0  0  0
    4.3735    0.3359    0.0000 C   0  0  0  0  0  0  0  0  0  0  0  0
    4.5434    1.8262    0.0000 C   0  0  0  0  0  0  0  0  0  0  0  0
    3.3376    2.7185    0.0000 C   0  0  0  0  0  0  0  0  0  0  0  0
    1.9620    2.1204    0.0000 C   0  0  0  0  0  0  0  0  0  0  0  0
  1  2  2  0
  2  3  1  0
  3  4  1  0
  4  5  2  0
  5  6  1  0
  6  7  1  0
  7  8  2  0
  8  9  1  0
  9 10  1  0
  9 11  2  0
 11 12  1  0
 12 13  2  0
  5 14  1  0
 14 15  2  0
 15 16  1  0
 16 17  1  0
 17 18  1  0
 18 19  1  0
 15  2  1  0
 13  7  1  0
 19 14  1  0
M  END
$$$$

     RDKit          2D

 29 32  0  0  0  0  0  0  0  0999 V2000
    3.0030   -3.9636    0.0000 O   0  0  0  0  0  0  0  0  0  0  0  0
    2.8396   -2.4726    0.0000 C   0  0  0  0  0  0  0  0  0  0  0  0
    1.4666   -1.8686    0.0000 N   0  0  0  0  0  0  0  0  0  0  0  0
    1.3031   -0.3775    0.0000 N   0  0  0  0  0  0  0  0  0  0  0  0
    2.5127    0.5096    0.0000 C   0  0  0  0  0  0  0  0  0  0  0  0
    2.3493    2.0006    0.0000 C   0  0  0  0  0  0  0  0  0  0  0  0
    0.9763    2.6046    0.0000 C   0  0  0  0  0  0  0  0  0  0  0  0
    0.8128    4.0957    0.0000 C   0  0  0  0  0  0  0  0  0  0  0  0
   -0.5602    4.6997    0.0000 C   0  0  0  0  0  0  0  0  0  0  0  0
   -1.7698    3.8126    0.0000 C   0  0  0  0  0  0  0  0  0  0  0  0
   -3.1428    4.4166    0.0000 F   0  0  0  0  0  0  0  0  0  0  0  0
   -1.6063    2.3216    0.0000 C   0  0  0  0  0  0  0  0  0  0  0  0
   -2.8159    1.4345    0.0000 S   0  0  0  0  0  0  0  0  0  0  0  0
   -2.6525   -0.0566    0.0000 S   0  0  0  0  0  0  0  0  0  0  0  0
   -1.2795   -0.6606    0.0000 O   0  0  0  0  0  0  0  0  0  0  0  0
   -3.8621   -0.9437    0.0000 C   0  0  0  0  0  0  0  0  0  0  0  0
   -5.2351   -0.3397    0.0000 C   0  0  0  0  0  0  0  0  0  0  0  0
   -6.4447   -1.2267    0.0000 C   0  0  0  0  0  0  0  0  0  0  0  0
   -6.2813   -2.7178    0.0000 C   0  0  0  0  0  0  0  0  0  0  0  0
   -4.9082   -3.3218    0.0000 C   0  0  0  0  0  0  0  0  0  0  0  0
   -3.6987   -2.4347    0.0000 C   0  0  0  0  0  0  0  0  0  0  0  0
   -2.3256   -3.0387    0.0000 Cl  0  0  0  0  0  0  0  0  0  0  0  0
   -0.2333    1.7176    0.0000 C   0  0  0  0  0  0  0  0  0  0  0  0
    3.8857   -0.0944    0.0000 C   0  0  0  0  0  0  0  0  0  0  0  0
    4.0492   -1.5855    0.0000 C   0  0  0  0  0  0  0  0  0  0  0  0
    5.4222   -2.1895    0.0000 C   0  0  0  0  0  0  0  0  0  0  0  0
    6.6318   -1.3024    0.0000 C   0  0  0  0  0  0  0  0  0  0  0  0
    6.4684    0.1886    0.0000 C   0  0  0  0  0  0  0  0  0  0  0  0
    5.0953    0.7926    0.0000 N   0  0  0  0  0  0  0  0  0  0  0  0
  1  2  2  0
  2  3  1  0
  3  4  1  0
  4  5  2  0
  5  6  1  0
  6  7  1  0
  7  8  2  0
  8  9  1  0
  9 10  2  0
 10 11  1  0
 10 12  1  0
 12 13  1  0
 13 14  1  0
 14 15  2  0
 14 16  1  0
 16 17  2  0
 17 18  1  0
 18 19  2  0
 19 20  1  0
 20 21  2  0
 21 22  1  0
 12 23  2  0
  5 24  1  0
 24 25  2  0
 25 26  1  0
 26 27  1  0
 27 28  1  0
 28 29  1  0
 25  2  1  0
 23  7  1  0
 29 24  1  0
 21 16  1  0
M  END
$$$$

     RDKit          2D

 24 27  0  0  0  0  0  0  0  0999 V2000
   -2.2862    1.4089    0.0000 C   0  0  0  0  0  0  0  0  0  0  0  0
   -3.6529    0.7906    0.0000 C   0  0  0  0  0  0  0  0  0  0  0  0
   -2.8950   -0.5039    0.0000 C   0  0  0  0  0  0  0  0  0  0  0  0
   -3.6372   -1.8074    0.0000 C   0  0  0  0  0  0  0  0  0  0  0  0
   -2.8794   -3.1019    0.0000 C   0  0  0  0  0  0  0  0  0  0  0  0
   -1.3794   -3.0929    0.0000 C   0  0  0  0  0  0  0  0  0  0  0  0
   -0.6373   -1.7894    0.0000 C   0  0  0  0  0  0  0  0  0  0  0  0
    0.8627   -1.7803    0.0000 C   0  0  0  0  0  0  0  0  0  0  0  0
    1.6049   -0.4768    0.0000 C   0  0  0  0  0  0  0  0  0  0  0  0
    0.8471    0.8177    0.0000 N   0  0  0  0  0  0  0  0  0  0  0  0
    1.5892    2.1212    0.0000 N   0  0  0  0  0  0  0  0  0  0  0  0
    3.0892    2.1303    0.0000 C   0  0  0  0  0  0  0  0  0  0  0  0
    3.8313    3.4338    0.0000 O   0  0  0  0  0  0  0  0  0  0  0  0
    3.8470    0.8358    0.0000 C   0  0  0  0  0  0  0  0  0  0  0  0
    3.1048   -0.4678    0.0000 C   0  0  0  0  0  0  0  0  0  0  0  0
    3.8627   -1.7622    0.0000 C   0  0  0  0  0  0  0  0  0  0  0  0
    5.3626   -1.7532    0.0000 C   0  0  0  0  0  0  0  0  0  0  0  0
    6.1048   -0.4497    0.0000 C   0  0  0  0  0  0  0  0  0  0  0  0
    5.3470    0.8448    0.0000 C   0  0  0  0  0  0  0  0  0  0  0  0
   -1.3951   -0.4949    0.0000 C   0  0  0  0  0  0  0  0  0  0  0  0
   -4.1250    2.2144    0.0000 C   0  0  0  0  0  0  0  0  0  0  0  0
   -5.6249    2.2053    0.0000 C   0  0  0  0  0  0  0  0  0  0  0  0
   -6.0799    0.7760    0.0000 N   0  0  0  0  0  0  0  0  0  0  0  0
   -4.8610   -0.0984    0.0000 C   0  0  0  0  0  0  0  0  0  0  0  0
  1  2  1  0
  2  3  1  0
  3  4  2  0
  4  5  1  0
  5  6  2  0
  6  7  1  0
  7  8  1  0
  8  9  1  0
  9 10  2  0
 10 11  1  0
 11 12  1  0
 12 13  2  0
 12 14  1  0
 14 15  2  0
 15 16  1  0
 16 17  1  0
 17 18  1  0
 18 19  1  0
  7 20  2  0
  2 21  1  0
 21 22  1  0
 22 23  1  0
 23 24  1  0
 24  2  1  0
 20  3  1  0
 15  9  1  0
 19 14  1  0
M  END
$$$$

     RDKit          2D

 31 34  0  0  0  0  0  0  0  0999 V2000
   -7.3125    2.0547    0.0000 C   0  0  0  0  0  0  0  0  0  0  0  0
   -7.8767    0.6648    0.0000 C   0  0  0  0  0  0  0  0  0  0  0  0
   -8.4409   -0.7250    0.0000 C   0  0  0  0  0  0  0  0  0  0  0  0
   -9.2666    1.2290    0.0000 C   0  0  0  0  0  0  0  0  0  0  0  0
   -6.4869    0.1006    0.0000 N   0  0  0  0  0  0  0  0  0  0  0  0
   -5.3033    1.0222    0.0000 C   0  0  0  0  0  0  0  0  0  0  0  0
   -3.9135    0.4580    0.0000 C   0  0  0  0  0  0  0  0  0  0  0  0
   -3.7072   -1.0277    0.0000 N   0  0  0  0  0  0  0  0  0  0  0  0
   -2.3173   -1.5919    0.0000 C   0  0  0  0  0  0  0  0  0  0  0  0
   -2.1110   -3.0777    0.0000 O   0  0  0  0  0  0  0  0  0  0  0  0
   -1.1338   -0.6704    0.0000 C   0  0  0  0  0  0  0  0  0  0  0  0
    0.2561   -1.2346    0.0000 C   0  0  0  0  0  0  0  0  0  0  0  0
    1.4396   -0.3130    0.0000 C   0  0  0  0  0  0  0  0  0  0  0  0
    2.8294   -0.8772    0.0000 C   0  0  0  0  0  0  0  0  0  0  0  0
    4.0130    0.0443    0.0000 C   0  0  0  0  0  0  0  0  0  0  0  0
    3.8066    1.5301    0.0000 N   0  0  0  0  0  0  0  0  0  0  0  0
    4.9902    2.4516    0.0000 N   0  0  0  0  0  0  0  0  0  0  0  0
    6.3800    1.8874    0.0000 C   0  0  0  0  0  0  0  0  0  0  0  0
    7.5636    2.8090    0.0000 O   0  0  0  0  0  0  0  0  0  0  0  0
    6.5864    0.4017    0.0000 C   0  0  0  0  0  0  0  0  0  0  0  0
    5.4028   -0.5199    0.0000 C   0  0  0  0  0  0  0  0  0  0  0  0
    5.6091   -2.0056    0.0000 C   0  0  0  0  0  0  0  0  0  0  0  0
    6.9990   -2.5698    0.0000 C   0  0  0  0  0  0  0  0  0  0  0  0
    8.1825   -1.6483    0.0000 C   0  0  0  0  0  0  0  0  0  0  0  0
    7.9762   -0.1625    0.0000 C   0  0  0  0  0  0  0  0  0  0  0  0
    1.2333    1.1727    0.0000 C   0  0  0  0  0  0  0  0  0  0  0  0
   -0.1566    1.7369    0.0000 C   0  0  0  0  0  0  0  0  0  0  0  0
   -1.3401    0.8154    0.0000 C   0  0  0  0  0  0  0  0  0  0  0  0
   -2.7300    1.3796    0.0000 F   0  0  0  0  0  0  0  0  0  0  0  0
   -4.8907   -1.9493    0.0000 C   0  0  0  0  0  0  0  0  0  0  0  0
   -6.2806   -1.3851    0.0000 C   0  0  0  0  0  0  0  0  0  0  0  0
  1  2  1  0
  2  3  1  0
  2  4  1  0
  2  5  1  0
  5  6  1  0
  6  7  1  0
  7  8  1  0
  8  9  1  0
  9 10  2  0
  9 11  1  0
 11 12  2  0
 12 13  1  0
 13 14  1  0
 14 15  1  0
 15 16  2  0
 16 17  1  0
 17 18  1  0
 18 19  2  0
 18 20  1  0
 20 21  2  0
 21 22  1  0
 22 23  1  0
 23 24  1  0
 24 25  1  0
 13 26  2  0
 26 27  1  0
 27 28  2  0
 28 29  1  0
  8 30  1  0
 30 31  1  0
 31  5  1  0
 28 11  1  0
 21 15  1  0
 25 20  1  0
M  END
$$$$

     RDKit          2D

 19 21  0  0  0  0  0  0  0  0999 V2000
   -6.5323   -0.6203    0.0000 C   0  0  0  0  0  0  0  0  0  0  0  0
   -5.0563   -0.3532    0.0000 N   0  0  0  0  0  0  0  0  0  0  0  0
   -4.5495    1.0586    0.0000 C   0  0  0  0  0  0  0  0  0  0  0  0
   -3.0735    1.3256    0.0000 C   0  0  0  0  0  0  0  0  0  0  0  0
   -2.1042    0.1809    0.0000 N   0  0  0  0  0  0  0  0  0  0  0  0
   -0.6282    0.4479    0.0000 C   0  0  0  0  0  0  0  0  0  0  0  0
    0.4555   -0.5892    0.0000 C   0  0  0  0  0  0  0  0  0  0  0  0
    1.7768    0.1209    0.0000 C   0  0  0  0  0  0  0  0  0  0  0  0
    3.1886   -0.3858    0.0000 C   0  0  0  0  0  0  0  0  0  0  0  0
    3.4556   -1.8619    0.0000 C   0  0  0  0  0  0  0  0  0  0  0  0
    4.8674   -2.3686    0.0000 N   0  0  0  0  0  0  0  0  0  0  0  0
    2.3109   -2.8312    0.0000 O   0  0  0  0  0  0  0  0  0  0  0  0
    4.3333    0.5835    0.0000 C   0  0  0  0  0  0  0  0  0  0  0  0
    4.0663    2.0595    0.0000 C   0  0  0  0  0  0  0  0  0  0  0  0
    2.6544    2.5662    0.0000 C   0  0  0  0  0  0  0  0  0  0  0  0
    1.5097    1.5969    0.0000 C   0  0  0  0  0  0  0  0  0  0  0  0
    0.0234    1.7991    0.0000 N   0  0  0  0  0  0  0  0  0  0  0  0
   -2.6109   -1.2309    0.0000 C   0  0  0  0  0  0  0  0  0  0  0  0
   -4.0870   -1.4980    0.0000 C   0  0  0  0  0  0  0  0  0  0  0  0
  1  2  1  0
  2  3  1  0
  3  4  1  0
  4  5  1  0
  5  6  1  0
  6  7  2  0
  7  8  1  0
  8  9  2  0
  9 10  1  0
 10 11  1  0
 10 12  2  0
  9 13  1  0
 13 14  2  0
 14 15  1  0
 15 16  2  0
 16 17  1  0
  5 18  1  0
 18 19  1  0
 19  2  1  0
 17  6  1  0
 16  8  1  0
M  END
$$$$

     RDKit          2D

 23 25  0  0  0  0  0  0  0  0999 V2000
   -8.5563    0.6558    0.0000 C   0  0  0  0  0  0  0  0  0  0  0  0
   -7.5131   -0.4220    0.0000 O   0  0  0  0  0  0  0  0  0  0  0  0
   -6.0581   -0.0574    0.0000 C   0  0  0  0  0  0  0  0  0  0  0  0
   -5.6463    1.3850    0.0000 O   0  0  0  0  0  0  0  0  0  0  0  0
   -5.0149   -1.1352    0.0000 N   0  0  0  0  0  0  0  0  0  0  0  0
   -3.5598   -0.7706    0.0000 C   0  0  0  0  0  0  0  0  0  0  0  0
   -3.1480    0.6717    0.0000 C   0  0  0  0  0  0  0  0  0  0  0  0
   -1.6930    1.0363    0.0000 C   0  0  0  0  0  0  0  0  0  0  0  0
   -0.6498   -0.0415    0.0000 N   0  0  0  0  0  0  0  0  0  0  0  0
    0.8052    0.3230    0.0000 C   0  0  0  0  0  0  0  0  0  0  0  0
    1.9554   -0.6398    0.0000 N   0  0  0  0  0  0  0  0  0  0  0  0
    3.2266    0.1565    0.0000 C   0  0  0  0  0  0  0  0  0  0  0  0
    4.6689   -0.2553    0.0000 C   0  0  0  0  0  0  0  0  0  0  0  0
    5.0335   -1.7103    0.0000 C   0  0  0  0  0  0  0  0  0  0  0  0
    6.4759   -2.1221    0.0000 N   0  0  0  0  0  0  0  0  0  0  0  0
    3.9557   -2.7535    0.0000 O   0  0  0  0  0  0  0  0  0  0  0  0
    5.7467    0.7880    0.0000 C   0  0  0  0  0  0  0  0  0  0  0  0
    5.3822    2.2430    0.0000 C   0  0  0  0  0  0  0  0  0  0  0  0
    3.9398    2.6548    0.0000 C   0  0  0  0  0  0  0  0  0  0  0  0
    2.8620    1.6115    0.0000 C   0  0  0  0  0  0  0  0  0  0  0  0
    1.3655    1.7145    0.0000 N   0  0  0  0  0  0  0  0  0  0  0  0
   -1.0616   -1.4839    0.0000 C   0  0  0  0  0  0  0  0  0  0  0  0
   -2.5166   -1.8485    0.0000 C   0  0  0  0  0  0  0  0  0  0  0  0
  1  2  1  0
  2  3  1  0
  3  4  2  0
  3  5  1  0
  5  6  1  0
  6  7  2  0
  7  8  1  0
  8  9  1  0
  9 10  1  0
 10 11  2  0
 11 12  1  0
 12 13  2  0
 13 14  1  0
 14 15  1  0
 14 16  2  0
 13 17  1  0
 17 18  2  0
 18 19  1  0
 19 20  2  0
 20 21  1  0
  9 22  1  0
 22 23  1  0
 23  6  1  0
 21 10  1  0
 20 12  1  0
M  END
$$$$

     RDKit          2D

 23 26  0  0  0  0  0  0  0  0999 V2000
   -7.9149   -0.0618    0.0000 C   0  0  0  0  0  0  0  0  0  0  0  0
   -6.7162   -0.9635    0.0000 O   0  0  0  0  0  0  0  0  0  0  0  0
   -5.3359   -0.3763    0.0000 C   0  0  0  0  0  0  0  0  0  0  0  0
   -5.1543    1.1127    0.0000 C   0  0  0  0  0  0  0  0  0  0  0  0
   -3.7741    1.6999    0.0000 C   0  0  0  0  0  0  0  0  0  0  0  0
   -2.5754    0.7982    0.0000 C   0  0  0  0  0  0  0  0  0  0  0  0
   -1.1951    1.3855    0.0000 N   0  0  0  0  0  0  0  0  0  0  0  0
    0.0036    0.4837    0.0000 C   0  0  0  0  0  0  0  0  0  0  0  0
   -0.0213   -1.0161    0.0000 N   0  0  0  0  0  0  0  0  0  0  0  0
    1.3974   -1.5032    0.0000 C   0  0  0  0  0  0  0  0  0  0  0  0
    1.9846   -2.8835    0.0000 C   0  0  0  0  0  0  0  0  0  0  0  0
    3.4736   -3.0650    0.0000 C   0  0  0  0  0  0  0  0  0  0  0  0
    4.3753   -1.8663    0.0000 C   0  0  0  0  0  0  0  0  0  0  0  0
    3.7881   -0.4861    0.0000 C   0  0  0  0  0  0  0  0  0  0  0  0
    2.2991   -0.3045    0.0000 C   0  0  0  0  0  0  0  0  0  0  0  0
    1.4377    0.9235    0.0000 C   0  0  0  0  0  0  0  0  0  0  0  0
    1.9036    2.3493    0.0000 C   0  0  0  0  0  0  0  0  0  0  0  0
    3.3088    2.8740    0.0000 C   0  0  0  0  0  0  0  0  0  0  0  0
    4.5952    2.1026    0.0000 N   0  0  0  0  0  0  0  0  0  0  0  0
    4.7941    0.6158    0.0000 C   0  0  0  0  0  0  0  0  0  0  0  0
    6.2199    0.1499    0.0000 O   0  0  0  0  0  0  0  0  0  0  0  0
   -2.7569   -0.6908    0.0000 C   0  0  0  0  0  0  0  0  0  0  0  0
   -4.1372   -1.2780    0.0000 C   0  0  0  0  0  0  0  0  0  0  0  0
  1  2  1  0
  2  3  1  0
  3  4  2  0
  4  5  1  0
  5  6  2  0
  6  7  1  0
  7  8  1  0
  8  9  1  0
  9 10  1  0
 10 11  2  0
 11 12  1  0
 12 13  2  0
 13 14  1  0
 14 15  2  0
 15 16  1  0
 16 17  1  0
 17 18  1  0
 18 19  1  0
 19 20  1  0
 20 21  2  0
  6 22  1  0
 22 23  2  0
 23  3  1  0
 16  8  2  0
 15 10  1  0
 20 14  1  0
M  END
$$$$

     RDKit          2D

 23 25  0  0  0  0  0  0  0  0999 V2000
   -7.2064    1.5461    0.0000 C   0  0  0  0  0  0  0  0  0  0  0  0
   -5.7352    1.2540    0.0000 C   0  0  0  0  0  0  0  0  0  0  0  0
   -4.7465    2.3820    0.0000 O   0  0  0  0  0  0  0  0  0  0  0  0
   -5.2525   -0.1663    0.0000 N   0  0  0  0  0  0  0  0  0  0  0  0
   -3.7813   -0.4584    0.0000 C   0  0  0  0  0  0  0  0  0  0  0  0
   -2.7926    0.6697    0.0000 C   0  0  0  0  0  0  0  0  0  0  0  0
   -1.3213    0.3775    0.0000 C   0  0  0  0  0  0  0  0  0  0  0  0
   -0.8387   -1.0427    0.0000 C   0  0  0  0  0  0  0  0  0  0  0  0
    0.6326   -1.3348    0.0000 C   0  0  0  0  0  0  0  0  0  0  0  0
    1.6212   -0.2067    0.0000 C   0  0  0  0  0  0  0  0  0  0  0  0
    1.1386    1.2135    0.0000 N   0  0  0  0  0  0  0  0  0  0  0  0
    2.1272    2.3416    0.0000 N   0  0  0  0  0  0  0  0  0  0  0  0
    3.5985    2.0494    0.0000 C   0  0  0  0  0  0  0  0  0  0  0  0
    4.5871    3.1775    0.0000 O   0  0  0  0  0  0  0  0  0  0  0  0
    4.0811    0.6292    0.0000 C   0  0  0  0  0  0  0  0  0  0  0  0
    3.0925   -0.4989    0.0000 C   0  0  0  0  0  0  0  0  0  0  0  0
    3.5751   -1.9191    0.0000 C   0  0  0  0  0  0  0  0  0  0  0  0
    5.0464   -2.2113    0.0000 C   0  0  0  0  0  0  0  0  0  0  0  0
    6.0350   -1.0832    0.0000 C   0  0  0  0  0  0  0  0  0  0  0  0
    5.5524    0.3371    0.0000 C   0  0  0  0  0  0  0  0  0  0  0  0
   -1.8273   -2.1708    0.0000 C   0  0  0  0  0  0  0  0  0  0  0  0
   -3.2986   -1.8787    0.0000 C   0  0  0  0  0  0  0  0  0  0  0  0
   -4.2873   -3.0067    0.0000 N   0  0  0  0  0  0  0  0  0  0  0  0
  1  2  1  0
  2  3  2  0
  2  4  1  0
  4  5  1  0
  5  6  2  0
  6  7  1  0
  7  8  2  0
  8  9  1  0
  9 10  1  0
 10 11  2  0
 11 12  1  0
 12 13  1  0
 13 14  2  0
 13 15  1  0
 15 16  2  0
 16 17  1  0
 17 18  1  0
 18 19  1  0
 19 20  1  0
  8 21  1  0
 21 22  2  0
 22 23  1  0
 22  5  1  0
 16 10  1  0
 20 15  1  0
M  END
$$$$

     RDKit          2D

 23 26  0  0  0  0  0  0  0  0999 V2000
   -4.5383    0.8616    0.0000 C   0  0  0  0  0  0  0  0  0  0  0  0
   -3.7648    1.0544    0.0000 C   0  0  0  0  0  0  0  0  0  0  0  0
   -3.0607   -0.2701    0.0000 C   0  0  0  0  0  0  0  0  0  0  0  0
   -3.8557   -1.5421    0.0000 C   0  0  0  0  0  0  0  0  0  0  0  0
   -3.1516   -2.8666    0.0000 C   0  0  0  0  0  0  0  0  0  0  0  0
   -1.6525   -2.9191    0.0000 C   0  0  0  0  0  0  0  0  0  0  0  0
   -0.8575   -1.6471    0.0000 C   0  0  0  0  0  0  0  0  0  0  0  0
    0.6415   -1.6996    0.0000 C   0  0  0  0  0  0  0  0  0  0  0  0
    1.4365   -0.4276    0.0000 C   0  0  0  0  0  0  0  0  0  0  0  0
    0.7325    0.8969    0.0000 N   0  0  0  0  0  0  0  0  0  0  0  0
    1.5275    2.1689    0.0000 N   0  0  0  0  0  0  0  0  0  0  0  0
    3.0265    2.1164    0.0000 C   0  0  0  0  0  0  0  0  0  0  0  0
    3.8215    3.3884    0.0000 O   0  0  0  0  0  0  0  0  0  0  0  0
    3.7306    0.7919    0.0000 C   0  0  0  0  0  0  0  0  0  0  0  0
    2.9356   -0.4801    0.0000 C   0  0  0  0  0  0  0  0  0  0  0  0
    3.6397   -1.8046    0.0000 C   0  0  0  0  0  0  0  0  0  0  0  0
    5.1388   -1.8571    0.0000 C   0  0  0  0  0  0  0  0  0  0  0  0
    5.9338   -0.5851    0.0000 C   0  0  0  0  0  0  0  0  0  0  0  0
    5.2297    0.7394    0.0000 C   0  0  0  0  0  0  0  0  0  0  0  0
   -1.5616   -0.3226    0.0000 C   0  0  0  0  0  0  0  0  0  0  0  0
   -5.0893    0.3503    0.0000 C   0  0  0  0  0  0  0  0  0  0  0  0
   -5.7934    1.6748    0.0000 C   0  0  0  0  0  0  0  0  0  0  0  0
   -4.4689    2.3788    0.0000 N   0  0  0  0  0  0  0  0  0  0  0  0
  1  2  1  0
  2  3  1  0
  3  4  2  0
  4  5  1  0
  5  6  2  0
  6  7  1  0
  7  8  1  0
  8  9  1  0
  9 10  2  0
 10 11  1  0
 11 12  1  0
 12 13  2  0
 12 14  1  0
 14 15  2  0
 15 16  1  0
 16 17  1  0
 17 18  1  0
 18 19  1  0
  7 20  2  0
  2 21  1  0
 21 22  1  0
 22 23  1  0
 23  2  1  0
 20  3  1  0
 15  9  1  0
 19 14  1  0
M  END
$$$$

     RDKit          2D

 34 37  0  0  0  0  0  0  0  0999 V2000
   -4.8613    4.7828    0.0000 C   0  0  0  0  0  0  0  0  0  0  0  0
   -4.0240    3.5382    0.0000 C   0  0  0  0  0  0  0  0  0  0  0  0
   -4.6832    2.1908    0.0000 C   0  0  0  0  0  0  0  0  0  0  0  0
   -3.8460    0.9462    0.0000 O   0  0  0  0  0  0  0  0  0  0  0  0
   -4.5052   -0.4011    0.0000 C   0  0  0  0  0  0  0  0  0  0  0  0
   -3.6679   -1.6457    0.0000 C   0  0  0  0  0  0  0  0  0  0  0  0
   -4.3271   -2.9931    0.0000 N   0  0  0  0  0  0  0  0  0  0  0  0
   -5.8235   -3.0959    0.0000 C   0  0  0  0  0  0  0  0  0  0  0  0
   -3.4898   -4.2377    0.0000 N   0  0  0  0  0  0  0  0  0  0  0  0
   -1.9933   -4.1349    0.0000 C   0  0  0  0  0  0  0  0  0  0  0  0
   -1.1560   -5.3794    0.0000 C   0  0  0  0  0  0  0  0  0  0  0  0
    0.3404   -5.2766    0.0000 C   0  0  0  0  0  0  0  0  0  0  0  0
    0.9996   -3.9292    0.0000 C   0  0  0  0  0  0  0  0  0  0  0  0
    0.1623   -2.6847    0.0000 C   0  0  0  0  0  0  0  0  0  0  0  0
    0.8215   -1.3373    0.0000 C   0  0  0  0  0  0  0  0  0  0  0  0
    2.3180   -1.2345    0.0000 C   0  0  0  0  0  0  0  0  0  0  0  0
    3.1553   -2.4790    0.0000 N   0  0  0  0  0  0  0  0  0  0  0  0
    4.6518   -2.3762    0.0000 N   0  0  0  0  0  0  0  0  0  0  0  0
    5.3110   -1.0288    0.0000 C   0  0  0  0  0  0  0  0  0  0  0  0
    6.8074   -0.9260    0.0000 O   0  0  0  0  0  0  0  0  0  0  0  0
    4.4737    0.2158    0.0000 C   0  0  0  0  0  0  0  0  0  0  0  0
    2.9772    0.1129    0.0000 C   0  0  0  0  0  0  0  0  0  0  0  0
    1.9638    1.2188    0.0000 C   0  0  0  0  0  0  0  0  0  0  0  0
    2.1965    2.7007    0.0000 C   0  0  0  0  0  0  0  0  0  0  0  0
    3.5002    3.4426    0.0000 C   0  0  0  0  0  0  0  0  0  0  0  0
    4.8931    2.8859    0.0000 C   0  0  0  0  0  0  0  0  0  0  0  0
    5.3263    1.4499    0.0000 C   0  0  0  0  0  0  0  0  0  0  0  0
   -1.3341   -2.7875    0.0000 C   0  0  0  0  0  0  0  0  0  0  0  0
   -2.5276    3.6410    0.0000 C   0  0  0  0  0  0  0  0  0  0  0  0
   -1.6903    2.3965    0.0000 C   0  0  0  0  0  0  0  0  0  0  0  0
   -0.1938    2.4993    0.0000 C   0  0  0  0  0  0  0  0  0  0  0  0
    0.4654    3.8467    0.0000 N   0  0  0  0  0  0  0  0  0  0  0  0
   -0.3719    5.0912    0.0000 C   0  0  0  0  0  0  0  0  0  0  0  0
   -1.8684    4.9884    0.0000 C   0  0  0  0  0  0  0  0  0  0  0  0
  1  2  1  0
  2  3  1  0
  3  4  1  0
  4  5  1  0
  5  6  1  0
  6  7  1  0
  7  8  1  0
  7  9  1  0
  9 10  1  0
 10 11  2  0
 11 12  1  0
 12 13  2  0
 13 14  1  0
 14 15  1  0
 15 16  1  0
 16 17  2  0
 17 18  1  0
 18 19  1  0
 19 20  2  0
 19 21  1  0
 21 22  2  0
 22 23  1  0
 23 24  1  0
 24 25  1  0
 25 26  1  0
 26 27  1  0
 14 28  2  0
  2 29  1  0
 29 30  2  0
 30 31  1  0
 31 32  2  0
 32 33  1  0
 33 34  2  0
 28 10  1  0
 34 29  1  0
 22 16  1  0
 27 21  1  0
M  END
$$$$

     RDKit          2D

 24 26  0  0  0  0  0  0  0  0999 V2000
   -6.5329    2.2659    0.0000 C   0  0  0  0  0  0  0  0  0  0  0  0
   -6.7053    0.7758    0.0000 C   0  0  0  0  0  0  0  0  0  0  0  0
   -6.8777   -0.7142    0.0000 C   0  0  0  0  0  0  0  0  0  0  0  0
   -8.1953    0.9482    0.0000 C   0  0  0  0  0  0  0  0  0  0  0  0
   -5.2152    0.6034    0.0000 N   0  0  0  0  0  0  0  0  0  0  0  0
   -4.6195   -0.7732    0.0000 C   0  0  0  0  0  0  0  0  0  0  0  0
   -3.1294   -0.9456    0.0000 C   0  0  0  0  0  0  0  0  0  0  0  0
   -2.2351    0.2586    0.0000 C   0  0  0  0  0  0  0  0  0  0  0  0
   -0.7450    0.0862    0.0000 C   0  0  0  0  0  0  0  0  0  0  0  0
   -0.1493   -1.2904    0.0000 C   0  0  0  0  0  0  0  0  0  0  0  0
    1.3408   -1.4628    0.0000 C   0  0  0  0  0  0  0  0  0  0  0  0
    2.2351   -0.2586    0.0000 C   0  0  0  0  0  0  0  0  0  0  0  0
    1.6394    1.1180    0.0000 N   0  0  0  0  0  0  0  0  0  0  0  0
    2.5337    2.3222    0.0000 N   0  0  0  0  0  0  0  0  0  0  0  0
    4.0238    2.1498    0.0000 C   0  0  0  0  0  0  0  0  0  0  0  0
    4.9181    3.3541    0.0000 O   0  0  0  0  0  0  0  0  0  0  0  0
    4.6195    0.7732    0.0000 C   0  0  0  0  0  0  0  0  0  0  0  0
    3.7251   -0.4310    0.0000 C   0  0  0  0  0  0  0  0  0  0  0  0
    4.3209   -1.8076    0.0000 C   0  0  0  0  0  0  0  0  0  0  0  0
    5.8109   -1.9801    0.0000 C   0  0  0  0  0  0  0  0  0  0  0  0
    6.7053   -0.7758    0.0000 C   0  0  0  0  0  0  0  0  0  0  0  0
    6.1095    0.6008    0.0000 C   0  0  0  0  0  0  0  0  0  0  0  0
   -1.0436   -2.4947    0.0000 C   0  0  0  0  0  0  0  0  0  0  0  0
   -2.5337   -2.3222    0.0000 N   0  0  0  0  0  0  0  0  0  0  0  0
  1  2  1  0
  2  3  1  0
  2  4  1  0
  2  5  1  0
  5  6  1  0
  6  7  1  0
  7  8  2  0
  8  9  1  0
  9 10  2  0
 10 11  1  0
 11 12  1  0
 12 13  2  0
 13 14  1  0
 14 15  1  0
 15 16  2  0
 15 17  1  0
 17 18  2  0
 18 19  1  0
 19 20  1  0
 20 21  1  0
 21 22  1  0
 10 23  1  0
 23 24  2  0
 24  7  1  0
 18 12  1  0
 22 17  1  0
M  END
$$$$

     RDKit          2D

 29 32  0  0  0  0  0  0  0  0999 V2000
   -8.5858    1.1490    0.0000 C   0  0  0  0  0  0  0  0  0  0  0  0
   -7.3427    0.3096    0.0000 O   0  0  0  0  0  0  0  0  0  0  0  0
   -5.9942    0.9665    0.0000 C   0  0  0  0  0  0  0  0  0  0  0  0
   -5.8888    2.4628    0.0000 C   0  0  0  0  0  0  0  0  0  0  0  0
   -4.5403    3.1197    0.0000 C   0  0  0  0  0  0  0  0  0  0  0  0
   -3.2971    2.2803    0.0000 C   0  0  0  0  0  0  0  0  0  0  0  0
   -3.4025    0.7840    0.0000 C   0  0  0  0  0  0  0  0  0  0  0  0
   -2.1594   -0.0554    0.0000 N   0  0  0  0  0  0  0  0  0  0  0  0
   -2.2647   -1.5516    0.0000 C   0  0  0  0  0  0  0  0  0  0  0  0
   -3.6132   -2.2085    0.0000 O   0  0  0  0  0  0  0  0  0  0  0  0
   -1.0216   -2.3910    0.0000 C   0  0  0  0  0  0  0  0  0  0  0  0
   -1.1269   -3.8873    0.0000 C   0  0  0  0  0  0  0  0  0  0  0  0
    0.1162   -4.7267    0.0000 C   0  0  0  0  0  0  0  0  0  0  0  0
    1.4647   -4.0698    0.0000 C   0  0  0  0  0  0  0  0  0  0  0  0
    1.5701   -2.5735    0.0000 C   0  0  0  0  0  0  0  0  0  0  0  0
    2.9186   -1.9166    0.0000 C   0  0  0  0  0  0  0  0  0  0  0  0
    3.0240   -0.4203    0.0000 C   0  0  0  0  0  0  0  0  0  0  0  0
    1.7808    0.4190    0.0000 N   0  0  0  0  0  0  0  0  0  0  0  0
    1.8862    1.9153    0.0000 N   0  0  0  0  0  0  0  0  0  0  0  0
    3.2347    2.5722    0.0000 C   0  0  0  0  0  0  0  0  0  0  0  0
    3.3401    4.0685    0.0000 O   0  0  0  0  0  0  0  0  0  0  0  0
    4.4778    1.7328    0.0000 C   0  0  0  0  0  0  0  0  0  0  0  0
    4.3725    0.2365    0.0000 C   0  0  0  0  0  0  0  0  0  0  0  0
    5.6156   -0.6028    0.0000 C   0  0  0  0  0  0  0  0  0  0  0  0
    6.9641    0.0540    0.0000 C   0  0  0  0  0  0  0  0  0  0  0  0
    7.0695    1.5503    0.0000 C   0  0  0  0  0  0  0  0  0  0  0  0
    5.8264    2.3897    0.0000 C   0  0  0  0  0  0  0  0  0  0  0  0
    0.3269   -1.7341    0.0000 C   0  0  0  0  0  0  0  0  0  0  0  0
   -4.7510    0.1271    0.0000 C   0  0  0  0  0  0  0  0  0  0  0  0
  1  2  1  0
  2  3  1  0
  3  4  2  0
  4  5  1  0
  5  6  2  0
  6  7  1  0
  7  8  1  0
  8  9  1  0
  9 10  2  0
  9 11  1  0
 11 12  2  0
 12 13  1  0
 13 14  2  0
 14 15  1  0
 15 16  1  0
 16 17  1  0
 17 18  2  0
 18 19  1  0
 19 20  1  0
 20 21  2  0
 20 22  1  0
 22 23  2  0
 23 24  1  0
 24 25  1  0
 25 26  1  0
 26 27  1  0
 15 28  2  0
  7 29  2  0
 29  3  1  0
 28 11  1  0
 23 17  1  0
 27 22  1  0
M  END
$$$$

     RDKit          2D

 23 26  0  0  0  0  0  0  0  0999 V2000
   -6.1328   -2.5832    0.0000 N   0  0  0  0  0  0  0  0  0  0  0  0
   -4.7538   -1.9928    0.0000 C   0  0  0  0  0  0  0  0  0  0  0  0
   -3.5531   -2.8918    0.0000 O   0  0  0  0  0  0  0  0  0  0  0  0
   -4.5756   -0.5034    0.0000 C   0  0  0  0  0  0  0  0  0  0  0  0
   -5.7764    0.3956    0.0000 C   0  0  0  0  0  0  0  0  0  0  0  0
   -5.5982    1.8850    0.0000 C   0  0  0  0  0  0  0  0  0  0  0  0
   -4.2192    2.4753    0.0000 C   0  0  0  0  0  0  0  0  0  0  0  0
   -3.0185    1.5763    0.0000 C   0  0  0  0  0  0  0  0  0  0  0  0
   -1.5469    1.8671    0.0000 N   0  0  0  0  0  0  0  0  0  0  0  0
   -0.8157    0.5574    0.0000 C   0  0  0  0  0  0  0  0  0  0  0  0
    0.6737    0.3792    0.0000 C   0  0  0  0  0  0  0  0  0  0  0  0
    1.2641   -0.9998    0.0000 C   0  0  0  0  0  0  0  0  0  0  0  0
    2.7534   -1.1780    0.0000 C   0  0  0  0  0  0  0  0  0  0  0  0
    3.6524    0.0228    0.0000 C   0  0  0  0  0  0  0  0  0  0  0  0
    5.1418   -0.1554    0.0000 C   0  0  0  0  0  0  0  0  0  0  0  0
    6.1614    0.9447    0.0000 C   0  0  0  0  0  0  0  0  0  0  0  0
    7.5228    0.3150    0.0000 N   0  0  0  0  0  0  0  0  0  0  0  0
    7.3446   -1.1744    0.0000 C   0  0  0  0  0  0  0  0  0  0  0  0
    5.8731   -1.4651    0.0000 N   0  0  0  0  0  0  0  0  0  0  0  0
    3.0621    1.4017    0.0000 C   0  0  0  0  0  0  0  0  0  0  0  0
    1.5727    1.5799    0.0000 C   0  0  0  0  0  0  0  0  0  0  0  0
   -1.8353   -0.5428    0.0000 N   0  0  0  0  0  0  0  0  0  0  0  0
   -3.1967    0.0869    0.0000 C   0  0  0  0  0  0  0  0  0  0  0  0
  1  2  1  0
  2  3  2  0
  2  4  1  0
  4  5  2  0
  5  6  1  0
  6  7  2  0
  7  8  1  0
  8  9  1  0
  9 10  1  0
 10 11  1  0
 11 12  2  0
 12 13  1  0
 13 14  2  0
 14 15  1  0
 15 16  2  0
 16 17  1  0
 17 18  2  0
 18 19  1  0
 14 20  1  0
 20 21  2  0
 10 22  2  0
 22 23  1  0
 23  4  1  0
 23  8  2  0
 21 11  1  0
 19 15  1  0
M  END
$$$$

     RDKit          2D

 19 21  0  0  0  0  0  0  0  0999 V2000
    3.7717   -2.8948    0.0000 O   0  0  0  0  0  0  0  0  0  0  0  0
    2.6650   -1.8823    0.0000 C   0  0  0  0  0  0  0  0  0  0  0  0
    1.2348   -2.3344    0.0000 N   0  0  0  0  0  0  0  0  0  0  0  0
    0.1281   -1.3219    0.0000 N   0  0  0  0  0  0  0  0  0  0  0  0
    0.4517    0.1428    0.0000 C   0  0  0  0  0  0  0  0  0  0  0  0
   -0.6550    1.1553    0.0000 C   0  0  0  0  0  0  0  0  0  0  0  0
   -2.0853    0.7032    0.0000 C   0  0  0  0  0  0  0  0  0  0  0  0
   -3.1920    1.7157    0.0000 C   0  0  0  0  0  0  0  0  0  0  0  0
   -4.6222    1.2636    0.0000 C   0  0  0  0  0  0  0  0  0  0  0  0
   -4.9457   -0.2011    0.0000 C   0  0  0  0  0  0  0  0  0  0  0  0
   -6.3760   -0.6533    0.0000 F   0  0  0  0  0  0  0  0  0  0  0  0
   -3.8390   -1.2137    0.0000 C   0  0  0  0  0  0  0  0  0  0  0  0
   -2.4088   -0.7615    0.0000 N   0  0  0  0  0  0  0  0  0  0  0  0
    1.8819    0.5949    0.0000 C   0  0  0  0  0  0  0  0  0  0  0  0
    2.9886   -0.4176    0.0000 C   0  0  0  0  0  0  0  0  0  0  0  0
    4.4188    0.0346    0.0000 C   0  0  0  0  0  0  0  0  0  0  0  0
    4.7423    1.4992    0.0000 C   0  0  0  0  0  0  0  0  0  0  0  0
    3.6357    2.5118    0.0000 C   0  0  0  0  0  0  0  0  0  0  0  0
    2.2054    2.0596    0.0000 N   0  0  0  0  0  0  0  0  0  0  0  0
  1  2  2  0
  2  3  1  0
  3  4  1  0
  4  5  2  0
  5  6  1  0
  6  7  1  0
  7  8  2  0
  8  9  1  0
  9 10  2  0
 10 11  1  0
 10 12  1  0
 12 13  2  0
  5 14  1  0
 14 15  2  0
 15 16  1  0
 16 17  1  0
 17 18  1  0
 18 19  1  0
 15  2  1  0
 13  7  1  0
 19 14  1  0
M  END
$$$$

     RDKit          2D

 27 29  0  0  0  0  0  0  0  0999 V2000
   -4.8770    5.0075    0.0000 C   0  0  0  0  0  0  0  0  0  0  0  0
   -5.0714    3.5202    0.0000 C   0  0  0  0  0  0  0  0  0  0  0  0
   -6.4567    2.9449    0.0000 F   0  0  0  0  0  0  0  0  0  0  0  0
   -3.8805    2.6082    0.0000 C   0  0  0  0  0  0  0  0  0  0  0  0
   -4.0749    1.1208    0.0000 C   0  0  0  0  0  0  0  0  0  0  0  0
   -2.8840    0.2088    0.0000 C   0  0  0  0  0  0  0  0  0  0  0  0
   -3.0784   -1.2785    0.0000 C   0  0  0  0  0  0  0  0  0  0  0  0
   -4.4637   -1.8539    0.0000 O   0  0  0  0  0  0  0  0  0  0  0  0
   -1.8875   -2.1905    0.0000 C   0  0  0  0  0  0  0  0  0  0  0  0
   -0.5022   -1.6152    0.0000 C   0  0  0  0  0  0  0  0  0  0  0  0
    0.6887   -2.5272    0.0000 C   0  0  0  0  0  0  0  0  0  0  0  0
    2.0740   -1.9519    0.0000 C   0  0  0  0  0  0  0  0  0  0  0  0
    2.2683   -0.4645    0.0000 C   0  0  0  0  0  0  0  0  0  0  0  0
    1.0774    0.4475    0.0000 N   0  0  0  0  0  0  0  0  0  0  0  0
    1.2718    1.9348    0.0000 N   0  0  0  0  0  0  0  0  0  0  0  0
    2.6571    2.5102    0.0000 C   0  0  0  0  0  0  0  0  0  0  0  0
    2.8515    3.9975    0.0000 O   0  0  0  0  0  0  0  0  0  0  0  0
    3.8480    1.5982    0.0000 C   0  0  0  0  0  0  0  0  0  0  0  0
    3.6536    0.1108    0.0000 C   0  0  0  0  0  0  0  0  0  0  0  0
    4.8445   -0.8012    0.0000 C   0  0  0  0  0  0  0  0  0  0  0  0
    6.2298   -0.2259    0.0000 C   0  0  0  0  0  0  0  0  0  0  0  0
    6.4242    1.2615    0.0000 C   0  0  0  0  0  0  0  0  0  0  0  0
    5.2333    2.1735    0.0000 C   0  0  0  0  0  0  0  0  0  0  0  0
    0.4943   -4.0146    0.0000 C   0  0  0  0  0  0  0  0  0  0  0  0
   -0.8910   -4.5899    0.0000 C   0  0  0  0  0  0  0  0  0  0  0  0
   -2.0819   -3.6779    0.0000 C   0  0  0  0  0  0  0  0  0  0  0  0
   -3.4671   -4.2532    0.0000 F   0  0  0  0  0  0  0  0  0  0  0  0
  1  2  1  0
  2  3  1  0
  2  4  1  0
  4  5  1  0
  5  6  1  0
  6  7  1  0
  7  8  2  0
  7  9  1  0
  9 10  2  0
 10 11  1  0
 11 12  1  0
 12 13  1  0
 13 14  2  0
 14 15  1  0
 15 16  1  0
 16 17  2  0
 16 18  1  0
 18 19  2  0
 19 20  1  0
 20 21  1  0
 21 22  1  0
 22 23  1  0
 11 24  2  0
 24 25  1  0
 25 26  2  0
 26 27  1  0
 26  9  1  0
 19 13  1  0
 23 18  1  0
M  END
$$$$

     RDKit          2D

 24 26  0  0  0  0  0  0  0  0999 V2000
   -8.8298    2.1730    0.0000 C   0  0  0  0  0  0  0  0  0  0  0  0
   -7.3370    2.0263    0.0000 C   0  0  0  0  0  0  0  0  0  0  0  0
   -6.7176    0.6602    0.0000 O   0  0  0  0  0  0  0  0  0  0  0  0
   -5.2248    0.5135    0.0000 N   0  0  0  0  0  0  0  0  0  0  0  0
   -4.6055   -0.8527    0.0000 C   0  0  0  0  0  0  0  0  0  0  0  0
   -5.4789   -2.0722    0.0000 O   0  0  0  0  0  0  0  0  0  0  0  0
   -3.1127   -0.9994    0.0000 C   0  0  0  0  0  0  0  0  0  0  0  0
   -2.2392    0.2201    0.0000 C   0  0  0  0  0  0  0  0  0  0  0  0
   -0.7464    0.0734    0.0000 C   0  0  0  0  0  0  0  0  0  0  0  0
   -0.1270   -1.2928    0.0000 C   0  0  0  0  0  0  0  0  0  0  0  0
    1.3658   -1.4395    0.0000 C   0  0  0  0  0  0  0  0  0  0  0  0
    2.2392   -0.2201    0.0000 C   0  0  0  0  0  0  0  0  0  0  0  0
    1.6199    1.1461    0.0000 N   0  0  0  0  0  0  0  0  0  0  0  0
    2.4933    2.3656    0.0000 N   0  0  0  0  0  0  0  0  0  0  0  0
    3.9861    2.2189    0.0000 C   0  0  0  0  0  0  0  0  0  0  0  0
    4.8596    3.4383    0.0000 O   0  0  0  0  0  0  0  0  0  0  0  0
    4.6055    0.8527    0.0000 C   0  0  0  0  0  0  0  0  0  0  0  0
    3.7320   -0.3668    0.0000 C   0  0  0  0  0  0  0  0  0  0  0  0
    4.3514   -1.7329    0.0000 C   0  0  0  0  0  0  0  0  0  0  0  0
    5.8442   -1.8796    0.0000 C   0  0  0  0  0  0  0  0  0  0  0  0
    6.7176   -0.6602    0.0000 C   0  0  0  0  0  0  0  0  0  0  0  0
    6.0983    0.7060    0.0000 C   0  0  0  0  0  0  0  0  0  0  0  0
   -1.0005   -2.5123    0.0000 C   0  0  0  0  0  0  0  0  0  0  0  0
   -2.4933   -2.3656    0.0000 C   0  0  0  0  0  0  0  0  0  0  0  0
  1  2  1  0
  2  3  1  0
  3  4  1  0
  4  5  1  0
  5  6  2  0
  5  7  1  0
  7  8  2  0
  8  9  1  0
  9 10  2  0
 10 11  1  0
 11 12  1  0
 12 13  2  0
 13 14  1  0
 14 15  1  0
 15 16  2  0
 15 17  1  0
 17 18  2  0
 18 19  1  0
 19 20  1  0
 20 21  1  0
 21 22  1  0
 10 23  1  0
 23 24  2  0
 24  7  1  0
 18 12  1  0
 22 17  1  0
M  END
$$$$

     RDKit          2D

 17 19  0  0  0  0  0  0  0  0999 V2000
   -2.3929   -1.8979    0.0000 C   0  0  0  0  0  0  0  0  0  0  0  0
   -2.9032   -0.4874    0.0000 C   0  0  0  0  0  0  0  0  0  0  0  0
   -1.4927    0.0229    0.0000 C   0  0  0  0  0  0  0  0  0  0  0  0
   -0.2507   -0.8182    0.0000 N   0  0  0  0  0  0  0  0  0  0  0  0
    0.9331    0.1030    0.0000 C   0  0  0  0  0  0  0  0  0  0  0  0
    2.4098   -0.1603    0.0000 C   0  0  0  0  0  0  0  0  0  0  0  0
    2.9201   -1.5708    0.0000 C   0  0  0  0  0  0  0  0  0  0  0  0
    4.3968   -1.8341    0.0000 N   0  0  0  0  0  0  0  0  0  0  0  0
    1.9537   -2.7180    0.0000 O   0  0  0  0  0  0  0  0  0  0  0  0
    3.3761    0.9869    0.0000 C   0  0  0  0  0  0  0  0  0  0  0  0
    2.8658    2.3975    0.0000 C   0  0  0  0  0  0  0  0  0  0  0  0
    1.3891    2.6607    0.0000 C   0  0  0  0  0  0  0  0  0  0  0  0
    0.4227    1.5135    0.0000 C   0  0  0  0  0  0  0  0  0  0  0  0
   -1.0765    1.4640    0.0000 N   0  0  0  0  0  0  0  0  0  0  0  0
   -3.4135    0.9231    0.0000 C   0  0  0  0  0  0  0  0  0  0  0  0
   -4.8240    0.4128    0.0000 C   0  0  0  0  0  0  0  0  0  0  0  0
   -4.3137   -0.9977    0.0000 C   0  0  0  0  0  0  0  0  0  0  0  0
  1  2  1  0
  2  3  1  0
  3  4  2  0
  4  5  1  0
  5  6  2  0
  6  7  1  0
  7  8  1  0
  7  9  2  0
  6 10  1  0
 10 11  2  0
 11 12  1  0
 12 13  2  0
 13 14  1  0
  2 15  1  0
 15 16  1  0
 16 17  1  0
 17  2  1  0
 14  3  1  0
 13  5  1  0
M  END
$$$$

     RDKit          2D

 29 32  0  0  0  0  0  0  0  0999 V2000
   -8.6570    2.2047    0.0000 C   0  0  0  0  0  0  0  0  0  0  0  0
   -8.4575    0.7181    0.0000 C   0  0  0  0  0  0  0  0  0  0  0  0
   -7.0703    0.1474    0.0000 N   0  0  0  0  0  0  0  0  0  0  0  0
   -5.8825    1.0635    0.0000 C   0  0  0  0  0  0  0  0  0  0  0  0
   -4.4953    0.4929    0.0000 C   0  0  0  0  0  0  0  0  0  0  0  0
   -4.2959   -0.9938    0.0000 N   0  0  0  0  0  0  0  0  0  0  0  0
   -2.9086   -1.5644    0.0000 C   0  0  0  0  0  0  0  0  0  0  0  0
   -2.7092   -3.0511    0.0000 O   0  0  0  0  0  0  0  0  0  0  0  0
   -1.7208   -0.6484    0.0000 C   0  0  0  0  0  0  0  0  0  0  0  0
   -0.3336   -1.2190    0.0000 C   0  0  0  0  0  0  0  0  0  0  0  0
    0.8542   -0.3029    0.0000 C   0  0  0  0  0  0  0  0  0  0  0  0
    2.2414   -0.8735    0.0000 C   0  0  0  0  0  0  0  0  0  0  0  0
    3.4292    0.0425    0.0000 C   0  0  0  0  0  0  0  0  0  0  0  0
    3.2297    1.5292    0.0000 N   0  0  0  0  0  0  0  0  0  0  0  0
    4.4175    2.4453    0.0000 N   0  0  0  0  0  0  0  0  0  0  0  0
    5.8047    1.8747    0.0000 C   0  0  0  0  0  0  0  0  0  0  0  0
    6.9925    2.7907    0.0000 O   0  0  0  0  0  0  0  0  0  0  0  0
    6.0042    0.3880    0.0000 C   0  0  0  0  0  0  0  0  0  0  0  0
    4.8164   -0.5281    0.0000 C   0  0  0  0  0  0  0  0  0  0  0  0
    5.0158   -2.0148    0.0000 C   0  0  0  0  0  0  0  0  0  0  0  0
    6.4031   -2.5854    0.0000 C   0  0  0  0  0  0  0  0  0  0  0  0
    7.5908   -1.6693    0.0000 C   0  0  0  0  0  0  0  0  0  0  0  0
    7.3914   -0.1826    0.0000 C   0  0  0  0  0  0  0  0  0  0  0  0
    0.6547    1.1838    0.0000 C   0  0  0  0  0  0  0  0  0  0  0  0
   -0.7325    1.7544    0.0000 C   0  0  0  0  0  0  0  0  0  0  0  0
   -1.9203    0.8383    0.0000 C   0  0  0  0  0  0  0  0  0  0  0  0
   -3.3075    1.4089    0.0000 F   0  0  0  0  0  0  0  0  0  0  0  0
   -5.4836   -1.9099    0.0000 C   0  0  0  0  0  0  0  0  0  0  0  0
   -6.8709   -1.3392    0.0000 C   0  0  0  0  0  0  0  0  0  0  0  0
  1  2  1  0
  2  3  1  0
  3  4  1  0
  4  5  1  0
  5  6  1  0
  6  7  1  0
  7  8  2  0
  7  9  1  0
  9 10  2  0
 10 11  1  0
 11 12  1  0
 12 13  1  0
 13 14  2  0
 14 15  1  0
 15 16  1  0
 16 17  2  0
 16 18  1  0
 18 19  2  0
 19 20  1  0
 20 21  1  0
 21 22  1  0
 22 23  1  0
 11 24  2  0
 24 25  1  0
 25 26  2  0
 26 27  1  0
  6 28  1  0
 28 29  1  0
 29  3  1  0
 26  9  1  0
 19 13  1  0
 23 18  1  0
M  END
$$$$

     RDKit          2D

 25 28  0  0  0  0  0  0  0  0999 V2000
   -6.0166    1.3798    0.0000 O   0  0  0  0  0  0  0  0  0  0  0  0
   -5.7067   -0.0878    0.0000 C   0  0  0  0  0  0  0  0  0  0  0  0
   -6.7119   -1.2012    0.0000 C   0  0  0  0  0  0  0  0  0  0  0  0
   -5.9636   -2.5012    0.0000 C   0  0  0  0  0  0  0  0  0  0  0  0
   -4.4960   -2.1913    0.0000 C   0  0  0  0  0  0  0  0  0  0  0  0
   -4.3372   -0.6997    0.0000 N   0  0  0  0  0  0  0  0  0  0  0  0
   -3.0372    0.0485    0.0000 C   0  0  0  0  0  0  0  0  0  0  0  0
   -1.7391   -0.7032    0.0000 C   0  0  0  0  0  0  0  0  0  0  0  0
   -0.4391    0.0451    0.0000 C   0  0  0  0  0  0  0  0  0  0  0  0
    0.8589   -0.7066    0.0000 C   0  0  0  0  0  0  0  0  0  0  0  0
    2.1590    0.0416    0.0000 C   0  0  0  0  0  0  0  0  0  0  0  0
    2.1610    1.5416    0.0000 N   0  0  0  0  0  0  0  0  0  0  0  0
    3.4610    2.2899    0.0000 N   0  0  0  0  0  0  0  0  0  0  0  0
    4.7590    1.5382    0.0000 C   0  0  0  0  0  0  0  0  0  0  0  0
    6.0591    2.2865    0.0000 O   0  0  0  0  0  0  0  0  0  0  0  0
    4.7570    0.0382    0.0000 C   0  0  0  0  0  0  0  0  0  0  0  0
    3.4570   -0.7101    0.0000 C   0  0  0  0  0  0  0  0  0  0  0  0
    3.4550   -2.2101    0.0000 N   0  0  0  0  0  0  0  0  0  0  0  0
    4.7531   -2.9618    0.0000 C   0  0  0  0  0  0  0  0  0  0  0  0
    6.0531   -2.2135    0.0000 C   0  0  0  0  0  0  0  0  0  0  0  0
    6.0551   -0.7135    0.0000 C   0  0  0  0  0  0  0  0  0  0  0  0
   -0.4371    1.5451    0.0000 C   0  0  0  0  0  0  0  0  0  0  0  0
   -1.7352    2.2968    0.0000 C   0  0  0  0  0  0  0  0  0  0  0  0
   -3.0352    1.5485    0.0000 C   0  0  0  0  0  0  0  0  0  0  0  0
   -4.3332    2.3003    0.0000 F   0  0  0  0  0  0  0  0  0  0  0  0
  1  2  2  0
  2  3  1  0
  3  4  1  0
  4  5  1  0
  5  6  1  0
  6  7  1  0
  7  8  2  0
  8  9  1  0
  9 10  1  0
 10 11  1  0
 11 12  2  0
 12 13  1  0
 13 14  1  0
 14 15  2  0
 14 16  1  0
 16 17  2  0
 17 18  1  0
 18 19  1  0
 19 20  1  0
 20 21  1  0
  9 22  2  0
 22 23  1  0
 23 24  2  0
 24 25  1  0
  6  2  1  0
 24  7  1  0
 17 11  1  0
 21 16  1  0
M  END
$$$$

     RDKit          2D

 30 33  0  0  0  0  0  0  0  0999 V2000
   -6.6842   -0.4510    0.0000 C   0  0  0  0  0  0  0  0  0  0  0  0
   -5.6165    0.6025    0.0000 C   0  0  0  0  0  0  0  0  0  0  0  0
   -5.9949    2.0539    0.0000 C   0  0  0  0  0  0  0  0  0  0  0  0
   -4.9271    3.1074    0.0000 C   0  0  0  0  0  0  0  0  0  0  0  0
   -3.4809    2.7094    0.0000 C   0  0  0  0  0  0  0  0  0  0  0  0
   -2.4131    3.7629    0.0000 Cl  0  0  0  0  0  0  0  0  0  0  0  0
   -3.1024    1.2580    0.0000 C   0  0  0  0  0  0  0  0  0  0  0  0
   -4.1702    0.2045    0.0000 C   0  0  0  0  0  0  0  0  0  0  0  0
   -3.7918   -1.2470    0.0000 C   0  0  0  0  0  0  0  0  0  0  0  0
   -2.3455   -1.6450    0.0000 C   0  0  0  0  0  0  0  0  0  0  0  0
   -1.2777   -0.5915    0.0000 O   0  0  0  0  0  0  0  0  0  0  0  0
   -1.9671   -3.0965    0.0000 C   0  0  0  0  0  0  0  0  0  0  0  0
   -0.5208   -3.4945    0.0000 C   0  0  0  0  0  0  0  0  0  0  0  0
   -0.1424   -4.9459    0.0000 C   0  0  0  0  0  0  0  0  0  0  0  0
    1.3038   -5.3439    0.0000 C   0  0  0  0  0  0  0  0  0  0  0  0
    2.3716   -4.2904    0.0000 C   0  0  0  0  0  0  0  0  0  0  0  0
    1.9932   -2.8390    0.0000 C   0  0  0  0  0  0  0  0  0  0  0  0
    3.0610   -1.7855    0.0000 C   0  0  0  0  0  0  0  0  0  0  0  0
    2.6825   -0.3340    0.0000 C   0  0  0  0  0  0  0  0  0  0  0  0
    1.2363    0.0640    0.0000 N   0  0  0  0  0  0  0  0  0  0  0  0
    0.8578    1.5155    0.0000 N   0  0  0  0  0  0  0  0  0  0  0  0
    1.9256    2.5689    0.0000 C   0  0  0  0  0  0  0  0  0  0  0  0
    1.5472    4.0204    0.0000 O   0  0  0  0  0  0  0  0  0  0  0  0
    3.3719    2.1709    0.0000 C   0  0  0  0  0  0  0  0  0  0  0  0
    3.7503    0.7195    0.0000 C   0  0  0  0  0  0  0  0  0  0  0  0
    5.1966    0.3215    0.0000 C   0  0  0  0  0  0  0  0  0  0  0  0
    6.2643    1.3750    0.0000 C   0  0  0  0  0  0  0  0  0  0  0  0
    5.8859    2.8264    0.0000 C   0  0  0  0  0  0  0  0  0  0  0  0
    4.4397    3.2244    0.0000 C   0  0  0  0  0  0  0  0  0  0  0  0
    0.5469   -2.4410    0.0000 C   0  0  0  0  0  0  0  0  0  0  0  0
  1  2  1  0
  2  3  2  0
  3  4  1  0
  4  5  2  0
  5  6  1  0
  5  7  1  0
  7  8  2  0
  8  9  1  0
  9 10  1  0
 10 11  2  0
 10 12  1  0
 12 13  1  0
 13 14  2  0
 14 15  1  0
 15 16  2  0
 16 17  1  0
 17 18  1  0
 18 19  1  0
 19 20  2  0
 20 21  1  0
 21 22  1  0
 22 23  2  0
 22 24  1  0
 24 25  2  0
 25 26  1  0
 26 27  1  0
 27 28  1  0
 28 29  1  0
 17 30  2  0
  8  2  1  0
 30 13  1  0
 25 19  1  0
 29 24  1  0
M  END
$$$$

     RDKit          2D

 25 27  0  0  0  0  0  0  0  0999 V2000
   -4.2692    5.1990    0.0000 C   0  0  0  0  0  0  0  0  0  0  0  0
   -3.3720    3.9969    0.0000 C   0  0  0  0  0  0  0  0  0  0  0  0
   -3.9645    2.6189    0.0000 C   0  0  0  0  0  0  0  0  0  0  0  0
   -3.0673    1.4167    0.0000 N   0  0  0  0  0  0  0  0  0  0  0  0
   -3.6598    0.0387    0.0000 C   0  0  0  0  0  0  0  0  0  0  0  0
   -5.1494   -0.1372    0.0000 O   0  0  0  0  0  0  0  0  0  0  0  0
   -2.7626   -1.1634    0.0000 C   0  0  0  0  0  0  0  0  0  0  0  0
   -1.2730   -0.9875    0.0000 C   0  0  0  0  0  0  0  0  0  0  0  0
   -0.3758   -2.1896    0.0000 C   0  0  0  0  0  0  0  0  0  0  0  0
    1.1138   -2.0137    0.0000 C   0  0  0  0  0  0  0  0  0  0  0  0
    1.7063   -0.6357    0.0000 C   0  0  0  0  0  0  0  0  0  0  0  0
    0.8092    0.5665    0.0000 N   0  0  0  0  0  0  0  0  0  0  0  0
    1.4016    1.9445    0.0000 N   0  0  0  0  0  0  0  0  0  0  0  0
    2.8913    2.1204    0.0000 C   0  0  0  0  0  0  0  0  0  0  0  0
    3.4838    3.4984    0.0000 O   0  0  0  0  0  0  0  0  0  0  0  0
    3.7885    0.9183    0.0000 C   0  0  0  0  0  0  0  0  0  0  0  0
    3.1960   -0.4597    0.0000 C   0  0  0  0  0  0  0  0  0  0  0  0
    4.0931   -1.6619    0.0000 N   0  0  0  0  0  0  0  0  0  0  0  0
    5.5828   -1.4860    0.0000 C   0  0  0  0  0  0  0  0  0  0  0  0
    6.1753   -0.1079    0.0000 C   0  0  0  0  0  0  0  0  0  0  0  0
    5.2781    1.0942    0.0000 C   0  0  0  0  0  0  0  0  0  0  0  0
   -0.9683   -3.5676    0.0000 C   0  0  0  0  0  0  0  0  0  0  0  0
   -2.4579   -3.7435    0.0000 C   0  0  0  0  0  0  0  0  0  0  0  0
   -3.3551   -2.5414    0.0000 C   0  0  0  0  0  0  0  0  0  0  0  0
   -4.8448   -2.7173    0.0000 F   0  0  0  0  0  0  0  0  0  0  0  0
  1  2  1  0
  2  3  1  0
  3  4  1  0
  4  5  1  0
  5  6  2  0
  5  7  1  0
  7  8  2  0
  8  9  1  0
  9 10  1  0
 10 11  1  0
 11 12  2  0
 12 13  1  0
 13 14  1  0
 14 15  2  0
 14 16  1  0
 16 17  2  0
 17 18  1  0
 18 19  1  0
 19 20  1  0
 20 21  1  0
  9 22  2  0
 22 23  1  0
 23 24  2  0
 24 25  1  0
 24  7  1  0
 17 11  1  0
 21 16  1  0
M  END
$$$$

     RDKit          2D

 26 29  0  0  0  0  0  0  0  0999 V2000
    6.7181   -2.6931    0.0000 O   0  0  0  0  0  0  0  0  0  0  0  0
    5.4267   -1.9300    0.0000 C   0  0  0  0  0  0  0  0  0  0  0  0
    4.1202   -2.6668    0.0000 N   0  0  0  0  0  0  0  0  0  0  0  0
    2.8288   -1.9037    0.0000 N   0  0  0  0  0  0  0  0  0  0  0  0
    2.8440   -0.4038    0.0000 C   0  0  0  0  0  0  0  0  0  0  0  0
    1.5526    0.3593    0.0000 C   0  0  0  0  0  0  0  0  0  0  0  0
    0.2460   -0.3775    0.0000 C   0  0  0  0  0  0  0  0  0  0  0  0
   -1.0454    0.3856    0.0000 C   0  0  0  0  0  0  0  0  0  0  0  0
   -1.0302    1.8855    0.0000 C   0  0  0  0  0  0  0  0  0  0  0  0
   -2.3216    2.6486    0.0000 C   0  0  0  0  0  0  0  0  0  0  0  0
   -3.6281    1.9118    0.0000 C   0  0  0  0  0  0  0  0  0  0  0  0
   -4.9195    2.6749    0.0000 F   0  0  0  0  0  0  0  0  0  0  0  0
   -3.6433    0.4119    0.0000 S   0  0  0  0  0  0  0  0  0  0  0  0
   -4.9499   -0.3249    0.0000 N   0  0  0  0  0  0  0  0  0  0  0  0
   -6.2413    0.4382    0.0000 C   0  0  0  0  0  0  0  0  0  0  0  0
   -7.5478   -0.2987    0.0000 C   0  0  0  0  0  0  0  0  0  0  0  0
   -7.5630   -1.7986    0.0000 C   0  0  0  0  0  0  0  0  0  0  0  0
   -6.2716   -2.5617    0.0000 N   0  0  0  0  0  0  0  0  0  0  0  0
   -4.9651   -1.8249    0.0000 C   0  0  0  0  0  0  0  0  0  0  0  0
   -2.3519   -0.3512    0.0000 C   0  0  0  0  0  0  0  0  0  0  0  0
    4.1505    0.3330    0.0000 C   0  0  0  0  0  0  0  0  0  0  0  0
    5.4419   -0.4301    0.0000 C   0  0  0  0  0  0  0  0  0  0  0  0
    6.7485    0.3068    0.0000 C   0  0  0  0  0  0  0  0  0  0  0  0
    6.7636    1.8067    0.0000 C   0  0  0  0  0  0  0  0  0  0  0  0
    5.4722    2.5698    0.0000 C   0  0  0  0  0  0  0  0  0  0  0  0
    4.1657    1.8330    0.0000 C   0  0  0  0  0  0  0  0  0  0  0  0
  1  2  2  0
  2  3  1  0
  3  4  1  0
  4  5  2  0
  5  6  1  0
  6  7  1  0
  7  8  1  0
  8  9  2  0
  9 10  1  0
 10 11  2  0
 11 12  1  0
 11 13  1  0
 13 14  1  0
 14 15  1  0
 15 16  1  0
 16 17  1  0
 17 18  1  0
 18 19  1  0
 13 20  2  0
  5 21  1  0
 21 22  2  0
 22 23  1  0
 23 24  1  0
 24 25  1  0
 25 26  1  0
 22  2  1  0
 20  8  1  0
 26 21  1  0
 19 14  1  0
M  END
$$$$

     RDKit          2D

 19 21  0  0  0  0  0  0  0  0999 V2000
    3.5136   -2.9648    0.0000 O   0  0  0  0  0  0  0  0  0  0  0  0
    2.4581   -1.8990    0.0000 C   0  0  0  0  0  0  0  0  0  0  0  0
    1.0073   -2.2802    0.0000 N   0  0  0  0  0  0  0  0  0  0  0  0
   -0.0482   -1.2144    0.0000 N   0  0  0  0  0  0  0  0  0  0  0  0
    0.3470    0.2326    0.0000 C   0  0  0  0  0  0  0  0  0  0  0  0
   -0.7085    1.2983    0.0000 C   0  0  0  0  0  0  0  0  0  0  0  0
   -2.1592    0.9171    0.0000 C   0  0  0  0  0  0  0  0  0  0  0  0
   -3.2148    1.9829    0.0000 C   0  0  0  0  0  0  0  0  0  0  0  0
   -4.6655    1.6017    0.0000 N   0  0  0  0  0  0  0  0  0  0  0  0
   -5.0607    0.1547    0.0000 N   0  0  0  0  0  0  0  0  0  0  0  0
   -4.0052   -0.9111    0.0000 C   0  0  0  0  0  0  0  0  0  0  0  0
   -4.4005   -2.3581    0.0000 Br  0  0  0  0  0  0  0  0  0  0  0  0
   -2.5545   -0.5299    0.0000 C   0  0  0  0  0  0  0  0  0  0  0  0
    1.7978    0.6138    0.0000 C   0  0  0  0  0  0  0  0  0  0  0  0
    2.8533   -0.4520    0.0000 C   0  0  0  0  0  0  0  0  0  0  0  0
    4.3040   -0.0708    0.0000 C   0  0  0  0  0  0  0  0  0  0  0  0
    4.6993    1.3762    0.0000 C   0  0  0  0  0  0  0  0  0  0  0  0
    3.6438    2.4420    0.0000 C   0  0  0  0  0  0  0  0  0  0  0  0
    2.1930    2.0608    0.0000 C   0  0  0  0  0  0  0  0  0  0  0  0
  1  2  2  0
  2  3  1  0
  3  4  1  0
  4  5  2  0
  5  6  1  0
  6  7  1  0
  7  8  2  0
  8  9  1  0
  9 10  2  0
 10 11  1  0
 11 12  1  0
 11 13  2  0
  5 14  1  0
 14 15  2  0
 15 16  1  0
 16 17  1  0
 17 18  1  0
 18 19  1  0
 15  2  1  0
 13  7  1  0
 19 14  1  0
M  END
$$$$

     RDKit          2D

 24 26  0  0  0  0  0  0  0  0999 V2000
   -8.2007    0.9779    0.0000 C   0  0  0  0  0  0  0  0  0  0  0  0
   -7.1900   -0.1305    0.0000 C   0  0  0  0  0  0  0  0  0  0  0  0
   -7.6445   -1.5599    0.0000 C   0  0  0  0  0  0  0  0  0  0  0  0
   -5.7247    0.1907    0.0000 C   0  0  0  0  0  0  0  0  0  0  0  0
   -5.2702    1.6201    0.0000 O   0  0  0  0  0  0  0  0  0  0  0  0
   -4.7140   -0.9177    0.0000 N   0  0  0  0  0  0  0  0  0  0  0  0
   -3.2488   -0.5966    0.0000 C   0  0  0  0  0  0  0  0  0  0  0  0
   -2.7943    0.8329    0.0000 C   0  0  0  0  0  0  0  0  0  0  0  0
   -1.3291    1.1540    0.0000 C   0  0  0  0  0  0  0  0  0  0  0  0
   -0.3184    0.0456    0.0000 N   0  0  0  0  0  0  0  0  0  0  0  0
    1.1469    0.3668    0.0000 C   0  0  0  0  0  0  0  0  0  0  0  0
    2.2679   -0.6299    0.0000 N   0  0  0  0  0  0  0  0  0  0  0  0
    3.5622    0.1283    0.0000 C   0  0  0  0  0  0  0  0  0  0  0  0
    4.9916   -0.3262    0.0000 C   0  0  0  0  0  0  0  0  0  0  0  0
    5.3128   -1.7914    0.0000 C   0  0  0  0  0  0  0  0  0  0  0  0
    6.7422   -2.2460    0.0000 N   0  0  0  0  0  0  0  0  0  0  0  0
    4.2044   -2.8022    0.0000 O   0  0  0  0  0  0  0  0  0  0  0  0
    6.1000    0.6845    0.0000 C   0  0  0  0  0  0  0  0  0  0  0  0
    5.7789    2.1497    0.0000 C   0  0  0  0  0  0  0  0  0  0  0  0
    4.3494    2.6042    0.0000 C   0  0  0  0  0  0  0  0  0  0  0  0
    3.2411    1.5935    0.0000 C   0  0  0  0  0  0  0  0  0  0  0  0
    1.7483    1.7409    0.0000 N   0  0  0  0  0  0  0  0  0  0  0  0
   -0.7729   -1.3838    0.0000 C   0  0  0  0  0  0  0  0  0  0  0  0
   -2.2381   -1.7050    0.0000 C   0  0  0  0  0  0  0  0  0  0  0  0
  1  2  1  0
  2  3  1  0
  2  4  1  0
  4  5  2  0
  4  6  1  0
  6  7  1  0
  7  8  1  0
  8  9  1  0
  9 10  1  0
 10 11  1  0
 11 12  2  0
 12 13  1  0
 13 14  2  0
 14 15  1  0
 15 16  1  0
 15 17  2  0
 14 18  1  0
 18 19  2  0
 19 20  1  0
 20 21  2  0
 21 22  1  0
 10 23  1  0
 23 24  1  0
 24  7  1  0
 22 11  1  0
 21 13  1  0
M  END
$$$$

     RDKit          2D

 30 33  0  0  0  0  0  0  0  0999 V2000
   -3.2897    4.9885    0.0000 C   0  0  0  0  0  0  0  0  0  0  0  0
   -3.2007    3.4911    0.0000 S   0  0  0  0  0  0  0  0  0  0  0  0
   -4.6980    3.4021    0.0000 O   0  0  0  0  0  0  0  0  0  0  0  0
   -1.7033    3.5802    0.0000 O   0  0  0  0  0  0  0  0  0  0  0  0
   -3.1116    1.9938    0.0000 N   0  0  0  0  0  0  0  0  0  0  0  0
   -1.7704    1.3222    0.0000 C   0  0  0  0  0  0  0  0  0  0  0  0
   -1.6813   -0.1751    0.0000 C   0  0  0  0  0  0  0  0  0  0  0  0
   -2.9335   -1.0009    0.0000 N   0  0  0  0  0  0  0  0  0  0  0  0
   -2.8445   -2.4983    0.0000 C   0  0  0  0  0  0  0  0  0  0  0  0
   -4.0967   -3.3241    0.0000 O   0  0  0  0  0  0  0  0  0  0  0  0
   -1.5032   -3.1698    0.0000 C   0  0  0  0  0  0  0  0  0  0  0  0
   -1.4142   -4.6672    0.0000 C   0  0  0  0  0  0  0  0  0  0  0  0
   -0.0729   -5.3387    0.0000 C   0  0  0  0  0  0  0  0  0  0  0  0
    1.1793   -4.5129    0.0000 C   0  0  0  0  0  0  0  0  0  0  0  0
    1.0903   -3.0156    0.0000 C   0  0  0  0  0  0  0  0  0  0  0  0
    2.3425   -2.1898    0.0000 C   0  0  0  0  0  0  0  0  0  0  0  0
    2.2534   -0.6924    0.0000 C   0  0  0  0  0  0  0  0  0  0  0  0
    0.9122   -0.0209    0.0000 N   0  0  0  0  0  0  0  0  0  0  0  0
    0.8231    1.4765    0.0000 N   0  0  0  0  0  0  0  0  0  0  0  0
    2.0753    2.3023    0.0000 C   0  0  0  0  0  0  0  0  0  0  0  0
    1.9863    3.7996    0.0000 O   0  0  0  0  0  0  0  0  0  0  0  0
    3.4166    1.6307    0.0000 C   0  0  0  0  0  0  0  0  0  0  0  0
    3.5057    0.1334    0.0000 C   0  0  0  0  0  0  0  0  0  0  0  0
    4.8469   -0.5382    0.0000 C   0  0  0  0  0  0  0  0  0  0  0  0
    6.0992    0.2876    0.0000 C   0  0  0  0  0  0  0  0  0  0  0  0
    6.0101    1.7850    0.0000 C   0  0  0  0  0  0  0  0  0  0  0  0
    4.6688    2.4565    0.0000 C   0  0  0  0  0  0  0  0  0  0  0  0
   -0.2510   -2.3440    0.0000 C   0  0  0  0  0  0  0  0  0  0  0  0
   -4.2748   -0.3294    0.0000 C   0  0  0  0  0  0  0  0  0  0  0  0
   -4.3639    1.1680    0.0000 C   0  0  0  0  0  0  0  0  0  0  0  0
  1  2  1  0
  2  3  2  0
  2  4  2  0
  2  5  1  0
  5  6  1  0
  6  7  1  0
  7  8  1  0
  8  9  1  0
  9 10  2  0
  9 11  1  0
 11 12  2  0
 12 13  1  0
 13 14  2  0
 14 15  1  0
 15 16  1  0
 16 17  1  0
 17 18  2  0
 18 19  1  0
 19 20  1  0
 20 21  2  0
 20 22  1  0
 22 23  2  0
 23 24  1  0
 24 25  1  0
 25 26  1  0
 26 27  1  0
 15 28  2  0
  8 29  1  0
 29 30  1  0
 30  5  1  0
 28 11  1  0
 23 17  1  0
 27 22  1  0
M  END
$$$$

     RDKit          2D

 21 23  0  0  0  0  0  0  0  0999 V2000
   -6.1187    2.0934    0.0000 C   0  0  0  0  0  0  0  0  0  0  0  0
   -5.7875    0.6305    0.0000 O   0  0  0  0  0  0  0  0  0  0  0  0
   -4.3549    0.1858    0.0000 C   0  0  0  0  0  0  0  0  0  0  0  0
   -3.2536    1.2041    0.0000 C   0  0  0  0  0  0  0  0  0  0  0  0
   -1.8210    0.7595    0.0000 C   0  0  0  0  0  0  0  0  0  0  0  0
   -1.4898   -0.7035    0.0000 C   0  0  0  0  0  0  0  0  0  0  0  0
   -0.0572   -1.1481    0.0000 C   0  0  0  0  0  0  0  0  0  0  0  0
    1.0442   -0.1298    0.0000 C   0  0  0  0  0  0  0  0  0  0  0  0
    0.7130    1.3332    0.0000 N   0  0  0  0  0  0  0  0  0  0  0  0
    1.8143    2.3515    0.0000 N   0  0  0  0  0  0  0  0  0  0  0  0
    3.2469    1.9069    0.0000 C   0  0  0  0  0  0  0  0  0  0  0  0
    4.3483    2.9252    0.0000 O   0  0  0  0  0  0  0  0  0  0  0  0
    3.5781    0.4439    0.0000 C   0  0  0  0  0  0  0  0  0  0  0  0
    2.4768   -0.5744    0.0000 C   0  0  0  0  0  0  0  0  0  0  0  0
    2.8080   -2.0374    0.0000 C   0  0  0  0  0  0  0  0  0  0  0  0
    4.2406   -2.4820    0.0000 C   0  0  0  0  0  0  0  0  0  0  0  0
    5.3419   -1.4637    0.0000 C   0  0  0  0  0  0  0  0  0  0  0  0
    5.0107   -0.0007    0.0000 C   0  0  0  0  0  0  0  0  0  0  0  0
   -2.5911   -1.7218    0.0000 C   0  0  0  0  0  0  0  0  0  0  0  0
   -4.0237   -1.2772    0.0000 C   0  0  0  0  0  0  0  0  0  0  0  0
   -5.1251   -2.2955    0.0000 Cl  0  0  0  0  0  0  0  0  0  0  0  0
  1  2  1  0
  2  3  1  0
  3  4  2  0
  4  5  1  0
  5  6  2  0
  6  7  1  0
  7  8  1  0
  8  9  2  0
  9 10  1  0
 10 11  1  0
 11 12  2  0
 11 13  1  0
 13 14  2  0
 14 15  1  0
 15 16  1  0
 16 17  1  0
 17 18  1  0
  6 19  1  0
 19 20  2  0
 20 21  1  0
 20  3  1  0
 14  8  1  0
 18 13  1  0
M  END
$$$$

     RDKit          2D

 23 25  0  0  0  0  0  0  0  0999 V2000
   -3.7472    3.8003    0.0000 C   0  0  0  0  0  0  0  0  0  0  0  0
   -3.1180    2.4387    0.0000 C   0  0  0  0  0  0  0  0  0  0  0  0
   -1.6242    2.3028    0.0000 C   0  0  0  0  0  0  0  0  0  0  0  0
   -3.9826    1.2130    0.0000 N   0  0  0  0  0  0  0  0  0  0  0  0
   -3.3533   -0.1487    0.0000 C   0  0  0  0  0  0  0  0  0  0  0  0
   -1.8595   -0.2846    0.0000 C   0  0  0  0  0  0  0  0  0  0  0  0
   -1.2303   -1.6462    0.0000 C   0  0  0  0  0  0  0  0  0  0  0  0
    0.2636   -1.7821    0.0000 C   0  0  0  0  0  0  0  0  0  0  0  0
    1.1282   -0.5563    0.0000 C   0  0  0  0  0  0  0  0  0  0  0  0
    0.4989    0.8053    0.0000 N   0  0  0  0  0  0  0  0  0  0  0  0
    1.3635    2.0311    0.0000 N   0  0  0  0  0  0  0  0  0  0  0  0
    2.8573    1.8952    0.0000 C   0  0  0  0  0  0  0  0  0  0  0  0
    3.7219    3.1209    0.0000 O   0  0  0  0  0  0  0  0  0  0  0  0
    3.4866    0.5336    0.0000 C   0  0  0  0  0  0  0  0  0  0  0  0
    2.6220   -0.6922    0.0000 C   0  0  0  0  0  0  0  0  0  0  0  0
    3.2512   -2.0538    0.0000 C   0  0  0  0  0  0  0  0  0  0  0  0
    4.7451   -2.1897    0.0000 C   0  0  0  0  0  0  0  0  0  0  0  0
    5.6097   -0.9640    0.0000 C   0  0  0  0  0  0  0  0  0  0  0  0
    4.9804    0.3977    0.0000 C   0  0  0  0  0  0  0  0  0  0  0  0
   -2.0949   -2.8720    0.0000 C   0  0  0  0  0  0  0  0  0  0  0  0
   -3.5887   -2.7361    0.0000 C   0  0  0  0  0  0  0  0  0  0  0  0
   -4.2179   -1.3744    0.0000 C   0  0  0  0  0  0  0  0  0  0  0  0
   -5.7118   -1.2386    0.0000 F   0  0  0  0  0  0  0  0  0  0  0  0
  1  2  1  0
  2  3  1  0
  2  4  1  0
  4  5  1  0
  5  6  2  0
  6  7  1  0
  7  8  1  0
  8  9  1  0
  9 10  2  0
 10 11  1  0
 11 12  1  0
 12 13  2  0
 12 14  1  0
 14 15  2  0
 15 16  1  0
 16 17  1  0
 17 18  1  0
 18 19  1  0
  7 20  2  0
 20 21  1  0
 21 22  2  0
 22 23  1  0
 22  5  1  0
 15  9  1  0
 19 14  1  0
M  END
$$$$

     RDKit          2D

 25 28  0  0  0  0  0  0  0  0999 V2000
    3.8523   -3.5041    0.0000 O   0  0  0  0  0  0  0  0  0  0  0  0
    3.1793   -2.1636    0.0000 C   0  0  0  0  0  0  0  0  0  0  0  0
    1.6818   -2.0761    0.0000 N   0  0  0  0  0  0  0  0  0  0  0  0
    1.0088   -0.7356    0.0000 N   0  0  0  0  0  0  0  0  0  0  0  0
    1.8333    0.5175    0.0000 C   0  0  0  0  0  0  0  0  0  0  0  0
    1.1603    1.8581    0.0000 C   0  0  0  0  0  0  0  0  0  0  0  0
   -0.3371    1.9455    0.0000 C   0  0  0  0  0  0  0  0  0  0  0  0
   -1.0101    3.2861    0.0000 C   0  0  0  0  0  0  0  0  0  0  0  0
   -2.5076    3.3735    0.0000 C   0  0  0  0  0  0  0  0  0  0  0  0
   -3.3320    2.1204    0.0000 C   0  0  0  0  0  0  0  0  0  0  0  0
   -4.8295    2.2079    0.0000 F   0  0  0  0  0  0  0  0  0  0  0  0
   -2.6591    0.7799    0.0000 C   0  0  0  0  0  0  0  0  0  0  0  0
   -3.4835   -0.4732    0.0000 N   0  0  0  0  0  0  0  0  0  0  0  0
   -4.9810   -0.3858    0.0000 C   0  0  0  0  0  0  0  0  0  0  0  0
   -5.8054   -1.6389    0.0000 C   0  0  0  0  0  0  0  0  0  0  0  0
   -5.1324   -2.9794    0.0000 N   0  0  0  0  0  0  0  0  0  0  0  0
   -3.6350   -3.0669    0.0000 C   0  0  0  0  0  0  0  0  0  0  0  0
   -2.8105   -1.8138    0.0000 C   0  0  0  0  0  0  0  0  0  0  0  0
   -1.1616    0.6924    0.0000 C   0  0  0  0  0  0  0  0  0  0  0  0
    3.3307    0.4301    0.0000 C   0  0  0  0  0  0  0  0  0  0  0  0
    4.0037   -0.9105    0.0000 C   0  0  0  0  0  0  0  0  0  0  0  0
    5.5012   -0.9979    0.0000 C   0  0  0  0  0  0  0  0  0  0  0  0
    6.3256    0.2552    0.0000 C   0  0  0  0  0  0  0  0  0  0  0  0
    5.6526    1.5957    0.0000 C   0  0  0  0  0  0  0  0  0  0  0  0
    4.1552    1.6832    0.0000 C   0  0  0  0  0  0  0  0  0  0  0  0
  1  2  2  0
  2  3  1  0
  3  4  1  0
  4  5  2  0
  5  6  1  0
  6  7  1  0
  7  8  2  0
  8  9  1  0
  9 10  2  0
 10 11  1  0
 10 12  1  0
 12 13  1  0
 13 14  1  0
 14 15  1  0
 15 16  1  0
 16 17  1  0
 17 18  1  0
 12 19  2  0
  5 20  1  0
 20 21  2  0
 21 22  1  0
 22 23  1  0
 23 24  1  0
 24 25  1  0
 21  2  1  0
 19  7  1  0
 25 20  1  0
 18 13  1  0
M  END
$$$$
