
     RDKit          2D

 34 38  0  0  0  0  0  0  0  0999 V2000
   -6.3178    0.9997    0.0000 F   0  0  0  0  0  0  0  0  0  0  0  0
   -5.1946    0.0055    0.0000 C   0  0  0  0  0  0  0  0  0  0  0  0
   -3.7720    0.4812    0.0000 C   0  0  0  0  0  0  0  0  0  0  0  0
   -3.4727    1.9511    0.0000 C   0  0  0  0  0  0  0  0  0  0  0  0
   -4.5959    2.9452    0.0000 O   0  0  0  0  0  0  0  0  0  0  0  0
   -2.0501    2.4267    0.0000 N   0  0  0  0  0  0  0  0  0  0  0  0
   -0.9269    1.4326    0.0000 C   0  0  0  0  0  0  0  0  0  0  0  0
    0.4957    1.9083    0.0000 C   0  0  0  0  0  0  0  0  0  0  0  0
    0.7951    3.3781    0.0000 N   0  0  0  0  0  0  0  0  0  0  0  0
    2.2176    3.8538    0.0000 C   0  0  0  0  0  0  0  0  0  0  0  0
    2.5170    5.3236    0.0000 O   0  0  0  0  0  0  0  0  0  0  0  0
    3.3409    2.8597    0.0000 C   0  0  0  0  0  0  0  0  0  0  0  0
    4.8054    3.1840    0.0000 C   0  0  0  0  0  0  0  0  0  0  0  0
    5.5664    1.8914    0.0000 S   0  0  0  0  0  0  0  0  0  0  0  0
    4.5723    0.7682    0.0000 C   0  0  0  0  0  0  0  0  0  0  0  0
    3.1968    1.3666    0.0000 C   0  0  0  0  0  0  0  0  0  0  0  0
   -0.3282    4.3723    0.0000 C   0  0  0  0  0  0  0  0  0  0  0  0
   -1.7508    3.8966    0.0000 C   0  0  0  0  0  0  0  0  0  0  0  0
   -2.6488   -0.5129    0.0000 C   0  0  0  0  0  0  0  0  0  0  0  0
   -2.9481   -1.9828    0.0000 C   0  0  0  0  0  0  0  0  0  0  0  0
   -1.8249   -2.9769    0.0000 C   0  0  0  0  0  0  0  0  0  0  0  0
   -0.4023   -2.5012    0.0000 C   0  0  0  0  0  0  0  0  0  0  0  0
   -0.1029   -1.0314    0.0000 N   0  0  0  0  0  0  0  0  0  0  0  0
    1.3196   -0.5557    0.0000 N   0  0  0  0  0  0  0  0  0  0  0  0
    2.4429   -1.5498    0.0000 C   0  0  0  0  0  0  0  0  0  0  0  0
    3.8655   -1.0742    0.0000 O   0  0  0  0  0  0  0  0  0  0  0  0
    2.1435   -3.0197    0.0000 C   0  0  0  0  0  0  0  0  0  0  0  0
    0.7210   -3.4954    0.0000 C   0  0  0  0  0  0  0  0  0  0  0  0
    0.4216   -4.9652    0.0000 N   0  0  0  0  0  0  0  0  0  0  0  0
    1.5449   -5.9593    0.0000 C   0  0  0  0  0  0  0  0  0  0  0  0
    2.9675   -5.4836    0.0000 C   0  0  0  0  0  0  0  0  0  0  0  0
    3.2668   -4.0138    0.0000 C   0  0  0  0  0  0  0  0  0  0  0  0
   -4.3707   -2.4584    0.0000 C   0  0  0  0  0  0  0  0  0  0  0  0
   -5.4939   -1.4643    0.0000 C   0  0  0  0  0  0  0  0  0  0  0  0
  1  2  1  0
  2  3  2  0
  3  4  1  0
  4  5  2  0
  4  6  1  0
  6  7  1  0
  7  8  1  0
  8  9  1  0
  9 10  1  0
 10 11  2  0
 10 12  1  0
 12 13  2  0
 13 14  1  0
 14 15  1  0
 15 16  2  0
  9 17  1  0
 17 18  1  0
  3 19  1  0
 19 20  2  0
 20 21  1  0
 21 22  1  0
 22 23  2  0
 23 24  1  0
 24 25  1  0
 25 26  2  0
 25 27  1  0
 27 28  2  0
 28 29  1  0
 29 30  1  0
 30 31  1  0
 31 32  1  0
 20 33  1  0
 33 34  2  0
 34  2  1  0
 18  6  1  0
 28 22  1  0
 16 12  1  0
 32 27  1  0
M  END
$$$$

     RDKit          2D

 35 39  0  0  0  0  0  0  0  0999 V2000
   -6.3646    1.5101    0.0000 F   0  0  0  0  0  0  0  0  0  0  0  0
   -5.3293    0.4247    0.0000 C   0  0  0  0  0  0  0  0  0  0  0  0
   -3.8716    0.7786    0.0000 C   0  0  0  0  0  0  0  0  0  0  0  0
   -3.4493    2.2179    0.0000 C   0  0  0  0  0  0  0  0  0  0  0  0
   -4.4847    3.3033    0.0000 O   0  0  0  0  0  0  0  0  0  0  0  0
   -1.9917    2.5719    0.0000 N   0  0  0  0  0  0  0  0  0  0  0  0
   -0.9563    1.4865    0.0000 C   0  0  0  0  0  0  0  0  0  0  0  0
    0.5013    1.8405    0.0000 C   0  0  0  0  0  0  0  0  0  0  0  0
    0.9236    3.2798    0.0000 N   0  0  0  0  0  0  0  0  0  0  0  0
    2.3812    3.6337    0.0000 C   0  0  0  0  0  0  0  0  0  0  0  0
    2.8035    5.0731    0.0000 O   0  0  0  0  0  0  0  0  0  0  0  0
    3.4166    2.5483    0.0000 C   0  0  0  0  0  0  0  0  0  0  0  0
    2.9943    1.1090    0.0000 C   0  0  0  0  0  0  0  0  0  0  0  0
    4.0296    0.0236    0.0000 N   0  0  0  0  0  0  0  0  0  0  0  0
    5.4873    0.3776    0.0000 C   0  0  0  0  0  0  0  0  0  0  0  0
    5.9096    1.8169    0.0000 C   0  0  0  0  0  0  0  0  0  0  0  0
    4.8742    2.9023    0.0000 C   0  0  0  0  0  0  0  0  0  0  0  0
   -0.1117    4.3652    0.0000 C   0  0  0  0  0  0  0  0  0  0  0  0
   -1.5694    4.0112    0.0000 C   0  0  0  0  0  0  0  0  0  0  0  0
   -2.8363   -0.3068    0.0000 C   0  0  0  0  0  0  0  0  0  0  0  0
   -3.2586   -1.7461    0.0000 C   0  0  0  0  0  0  0  0  0  0  0  0
   -2.2232   -2.8315    0.0000 C   0  0  0  0  0  0  0  0  0  0  0  0
   -0.7656   -2.4775    0.0000 C   0  0  0  0  0  0  0  0  0  0  0  0
   -0.3433   -1.0382    0.0000 N   0  0  0  0  0  0  0  0  0  0  0  0
    1.1144   -0.6843    0.0000 N   0  0  0  0  0  0  0  0  0  0  0  0
    2.1497   -1.7696    0.0000 C   0  0  0  0  0  0  0  0  0  0  0  0
    3.6073   -1.4157    0.0000 O   0  0  0  0  0  0  0  0  0  0  0  0
    1.7274   -3.2090    0.0000 C   0  0  0  0  0  0  0  0  0  0  0  0
    0.2698   -3.5629    0.0000 C   0  0  0  0  0  0  0  0  0  0  0  0
   -0.1525   -5.0022    0.0000 C   0  0  0  0  0  0  0  0  0  0  0  0
    0.8828   -6.0876    0.0000 C   0  0  0  0  0  0  0  0  0  0  0  0
    2.3405   -5.7337    0.0000 C   0  0  0  0  0  0  0  0  0  0  0  0
    2.7628   -4.2944    0.0000 C   0  0  0  0  0  0  0  0  0  0  0  0
   -4.7162   -2.1000    0.0000 C   0  0  0  0  0  0  0  0  0  0  0  0
   -5.7516   -1.0147    0.0000 C   0  0  0  0  0  0  0  0  0  0  0  0
  1  2  1  0
  2  3  2  0
  3  4  1  0
  4  5  2  0
  4  6  1  0
  6  7  1  0
  7  8  1  0
  8  9  1  0
  9 10  1  0
 10 11  2  0
 10 12  1  0
 12 13  2  0
 13 14  1  0
 14 15  2  0
 15 16  1  0
 16 17  2  0
  9 18  1  0
 18 19  1  0
  3 20  1  0
 20 21  2  0
 21 22  1  0
 22 23  1  0
 23 24  2  0
 24 25  1  0
 25 26  1  0
 26 27  2  0
 26 28  1  0
 28 29  2  0
 29 30  1  0
 30 31  1  0
 31 32  1  0
 32 33  1  0
 21 34  1  0
 34 35  2  0
 35  2  1  0
 19  6  1  0
 29 23  1  0
 17 12  1  0
 33 28  1  0
M  END
$$$$

     RDKit          2D

 38 42  0  0  0  0  0  0  0  0999 V2000
    6.9107   -2.9587    0.0000 F   0  0  0  0  0  0  0  0  0  0  0  0
    6.1771   -1.6504    0.0000 C   0  0  0  0  0  0  0  0  0  0  0  0
    4.6772   -1.6315    0.0000 C   0  0  0  0  0  0  0  0  0  0  0  0
    3.9109   -2.9210    0.0000 C   0  0  0  0  0  0  0  0  0  0  0  0
    4.6445   -4.2294    0.0000 O   0  0  0  0  0  0  0  0  0  0  0  0
    2.4111   -2.9021    0.0000 N   0  0  0  0  0  0  0  0  0  0  0  0
    1.6775   -1.5937    0.0000 C   0  0  0  0  0  0  0  0  0  0  0  0
    0.1776   -1.5749    0.0000 C   0  0  0  0  0  0  0  0  0  0  0  0
   -0.5887   -2.8644    0.0000 N   0  0  0  0  0  0  0  0  0  0  0  0
   -2.0886   -2.8455    0.0000 C   0  0  0  0  0  0  0  0  0  0  0  0
   -2.8549   -4.1350    0.0000 O   0  0  0  0  0  0  0  0  0  0  0  0
   -2.8222   -1.5371    0.0000 C   0  0  0  0  0  0  0  0  0  0  0  0
   -4.3221   -1.5183    0.0000 C   0  0  0  0  0  0  0  0  0  0  0  0
   -5.0557   -0.2099    0.0000 O   0  0  0  0  0  0  0  0  0  0  0  0
   -6.5556   -0.1910    0.0000 C   0  0  0  0  0  0  0  0  0  0  0  0
   -7.2892    1.1173    0.0000 C   0  0  0  0  0  0  0  0  0  0  0  0
   -8.7890    1.1362    0.0000 C   0  0  0  0  0  0  0  0  0  0  0  0
   -9.5553   -0.1533    0.0000 C   0  0  0  0  0  0  0  0  0  0  0  0
   -8.8217   -1.4617    0.0000 C   0  0  0  0  0  0  0  0  0  0  0  0
   -7.3218   -1.4805    0.0000 C   0  0  0  0  0  0  0  0  0  0  0  0
    0.1449   -4.1727    0.0000 C   0  0  0  0  0  0  0  0  0  0  0  0
    1.6448   -4.1916    0.0000 C   0  0  0  0  0  0  0  0  0  0  0  0
    3.9436   -0.3231    0.0000 C   0  0  0  0  0  0  0  0  0  0  0  0
    4.7099    0.9664    0.0000 C   0  0  0  0  0  0  0  0  0  0  0  0
    3.9763    2.2748    0.0000 C   0  0  0  0  0  0  0  0  0  0  0  0
    2.4764    2.2936    0.0000 C   0  0  0  0  0  0  0  0  0  0  0  0
    1.7101    1.0041    0.0000 N   0  0  0  0  0  0  0  0  0  0  0  0
    0.2103    1.0230    0.0000 N   0  0  0  0  0  0  0  0  0  0  0  0
   -0.5233    2.3314    0.0000 C   0  0  0  0  0  0  0  0  0  0  0  0
   -2.0232    2.3502    0.0000 O   0  0  0  0  0  0  0  0  0  0  0  0
    0.2429    3.6209    0.0000 C   0  0  0  0  0  0  0  0  0  0  0  0
    1.7428    3.6020    0.0000 C   0  0  0  0  0  0  0  0  0  0  0  0
    2.5091    4.8915    0.0000 C   0  0  0  0  0  0  0  0  0  0  0  0
    1.7755    6.1999    0.0000 C   0  0  0  0  0  0  0  0  0  0  0  0
    0.2756    6.2187    0.0000 C   0  0  0  0  0  0  0  0  0  0  0  0
   -0.4907    4.9292    0.0000 C   0  0  0  0  0  0  0  0  0  0  0  0
    6.2098    0.9475    0.0000 C   0  0  0  0  0  0  0  0  0  0  0  0
    6.9434   -0.3609    0.0000 C   0  0  0  0  0  0  0  0  0  0  0  0
  1  2  1  0
  2  3  2  0
  3  4  1  0
  4  5  2  0
  4  6  1  0
  6  7  1  0
  7  8  1  0
  8  9  1  0
  9 10  1  0
 10 11  2  0
 10 12  1  0
 12 13  1  0
 13 14  1  0
 14 15  1  0
 15 16  2  0
 16 17  1  0
 17 18  2  0
 18 19  1  0
 19 20  2  0
  9 21  1  0
 21 22  1  0
  3 23  1  0
 23 24  2  0
 24 25  1  0
 25 26  1  0
 26 27  2  0
 27 28  1  0
 28 29  1  0
 29 30  2  0
 29 31  1  0
 31 32  2  0
 32 33  1  0
 33 34  1  0
 34 35  1  0
 35 36  1  0
 24 37  1  0
 37 38  2  0
 38  2  1  0
 22  6  1  0
 32 26  1  0
 20 15  1  0
 36 31  1  0
M  END
$$$$

     RDKit          2D

 32 36  0  0  0  0  0  0  0  0999 V2000
   -2.2278    2.0527    0.0000 F   0  0  0  0  0  0  0  0  0  0  0  0
   -1.1377    1.0223    0.0000 C   0  0  0  0  0  0  0  0  0  0  0  0
   -1.5931   -0.4069    0.0000 C   0  0  0  0  0  0  0  0  0  0  0  0
   -3.0783   -0.6167    0.0000 C   0  0  0  0  0  0  0  0  0  0  0  0
   -3.7815   -1.9417    0.0000 N   0  0  0  0  0  0  0  0  0  0  0  0
   -5.2589   -1.6823    0.0000 C   0  0  0  0  0  0  0  0  0  0  0  0
   -5.4688   -0.1971    0.0000 C   0  0  0  0  0  0  0  0  0  0  0  0
   -6.8600    0.3638    0.0000 C   0  0  0  0  0  0  0  0  0  0  0  0
   -7.0698    1.8491    0.0000 C   0  0  0  0  0  0  0  0  0  0  0  0
   -5.8885    2.7734    0.0000 O   0  0  0  0  0  0  0  0  0  0  0  0
   -8.4610    2.4100    0.0000 N   0  0  0  0  0  0  0  0  0  0  0  0
   -8.0413   -0.5605    0.0000 C   0  0  0  0  0  0  0  0  0  0  0  0
   -7.8315   -2.0458    0.0000 C   0  0  0  0  0  0  0  0  0  0  0  0
   -6.4403   -2.6067    0.0000 C   0  0  0  0  0  0  0  0  0  0  0  0
   -4.1211    0.4615    0.0000 N   0  0  0  0  0  0  0  0  0  0  0  0
   -0.7596   -1.6540    0.0000 O   0  0  0  0  0  0  0  0  0  0  0  0
    0.7352   -1.7799    0.0000 C   0  0  0  0  0  0  0  0  0  0  0  0
    1.7655   -0.6898    0.0000 C   0  0  0  0  0  0  0  0  0  0  0  0
    3.1947   -1.1452    0.0000 C   0  0  0  0  0  0  0  0  0  0  0  0
    4.3037   -0.1351    0.0000 C   0  0  0  0  0  0  0  0  0  0  0  0
    3.9834    1.3303    0.0000 N   0  0  0  0  0  0  0  0  0  0  0  0
    5.0924    2.3404    0.0000 N   0  0  0  0  0  0  0  0  0  0  0  0
    6.5216    1.8850    0.0000 C   0  0  0  0  0  0  0  0  0  0  0  0
    7.6306    2.8951    0.0000 O   0  0  0  0  0  0  0  0  0  0  0  0
    6.8419    0.4196    0.0000 C   0  0  0  0  0  0  0  0  0  0  0  0
    5.7329   -0.5905    0.0000 C   0  0  0  0  0  0  0  0  0  0  0  0
    6.0532   -2.0559    0.0000 N   0  0  0  0  0  0  0  0  0  0  0  0
    7.4824   -2.5112    0.0000 C   0  0  0  0  0  0  0  0  0  0  0  0
    8.5913   -1.5012    0.0000 C   0  0  0  0  0  0  0  0  0  0  0  0
    8.2711   -0.0358    0.0000 C   0  0  0  0  0  0  0  0  0  0  0  0
    1.5557    0.7954    0.0000 C   0  0  0  0  0  0  0  0  0  0  0  0
    0.2636    1.5574    0.0000 C   0  0  0  0  0  0  0  0  0  0  0  0
  1  2  1  0
  2  3  2  0
  3  4  1  0
  4  5  1  0
  5  6  1  0
  6  7  2  0
  7  8  1  0
  8  9  1  0
  9 10  2  0
  9 11  1  0
  8 12  2  0
 12 13  1  0
 13 14  2  0
  7 15  1  0
  3 16  1  0
 16 17  1  0
 17 18  2  0
 18 19  1  0
 19 20  1  0
 20 21  2  0
 21 22  1  0
 22 23  1  0
 23 24  2  0
 23 25  1  0
 25 26  2  0
 26 27  1  0
 27 28  1  0
 28 29  1  0
 29 30  1  0
 18 31  1  0
 31 32  2  0
 32  2  1  0
 15  4  2  0
 26 20  1  0
 14  6  1  0
 30 25  1  0
M  END
$$$$

     RDKit          2D

 35 39  0  0  0  0  0  0  0  0999 V2000
   -6.3646    1.5101    0.0000 F   0  0  0  0  0  0  0  0  0  0  0  0
   -5.3293    0.4247    0.0000 C   0  0  0  0  0  0  0  0  0  0  0  0
   -3.8716    0.7786    0.0000 C   0  0  0  0  0  0  0  0  0  0  0  0
   -3.4493    2.2179    0.0000 C   0  0  0  0  0  0  0  0  0  0  0  0
   -4.4847    3.3033    0.0000 O   0  0  0  0  0  0  0  0  0  0  0  0
   -1.9917    2.5719    0.0000 N   0  0  0  0  0  0  0  0  0  0  0  0
   -0.9563    1.4865    0.0000 C   0  0  0  0  0  0  0  0  0  0  0  0
    0.5013    1.8405    0.0000 C   0  0  0  0  0  0  0  0  0  0  0  0
    0.9236    3.2798    0.0000 N   0  0  0  0  0  0  0  0  0  0  0  0
    2.3812    3.6337    0.0000 C   0  0  0  0  0  0  0  0  0  0  0  0
    2.8035    5.0731    0.0000 O   0  0  0  0  0  0  0  0  0  0  0  0
    3.4166    2.5483    0.0000 C   0  0  0  0  0  0  0  0  0  0  0  0
    2.9943    1.1090    0.0000 C   0  0  0  0  0  0  0  0  0  0  0  0
    4.0296    0.0236    0.0000 C   0  0  0  0  0  0  0  0  0  0  0  0
    5.4873    0.3776    0.0000 C   0  0  0  0  0  0  0  0  0  0  0  0
    5.9096    1.8169    0.0000 C   0  0  0  0  0  0  0  0  0  0  0  0
    4.8742    2.9023    0.0000 C   0  0  0  0  0  0  0  0  0  0  0  0
   -0.1117    4.3652    0.0000 C   0  0  0  0  0  0  0  0  0  0  0  0
   -1.5694    4.0112    0.0000 C   0  0  0  0  0  0  0  0  0  0  0  0
   -2.8363   -0.3068    0.0000 C   0  0  0  0  0  0  0  0  0  0  0  0
   -3.2586   -1.7461    0.0000 C   0  0  0  0  0  0  0  0  0  0  0  0
   -2.2232   -2.8315    0.0000 C   0  0  0  0  0  0  0  0  0  0  0  0
   -0.7656   -2.4775    0.0000 C   0  0  0  0  0  0  0  0  0  0  0  0
   -0.3433   -1.0382    0.0000 N   0  0  0  0  0  0  0  0  0  0  0  0
    1.1144   -0.6843    0.0000 N   0  0  0  0  0  0  0  0  0  0  0  0
    2.1497   -1.7696    0.0000 C   0  0  0  0  0  0  0  0  0  0  0  0
    3.6073   -1.4157    0.0000 O   0  0  0  0  0  0  0  0  0  0  0  0
    1.7274   -3.2090    0.0000 C   0  0  0  0  0  0  0  0  0  0  0  0
    0.2698   -3.5629    0.0000 C   0  0  0  0  0  0  0  0  0  0  0  0
   -0.1525   -5.0022    0.0000 C   0  0  0  0  0  0  0  0  0  0  0  0
    0.8828   -6.0876    0.0000 C   0  0  0  0  0  0  0  0  0  0  0  0
    2.3405   -5.7337    0.0000 C   0  0  0  0  0  0  0  0  0  0  0  0
    2.7628   -4.2944    0.0000 C   0  0  0  0  0  0  0  0  0  0  0  0
   -4.7162   -2.1000    0.0000 C   0  0  0  0  0  0  0  0  0  0  0  0
   -5.7516   -1.0147    0.0000 C   0  0  0  0  0  0  0  0  0  0  0  0
  1  2  1  0
  2  3  2  0
  3  4  1  0
  4  5  2  0
  4  6  1  0
  6  7  1  0
  7  8  1  0
  8  9  1  0
  9 10  1  0
 10 11  2  0
 10 12  1  0
 12 13  2  0
 13 14  1  0
 14 15  2  0
 15 16  1  0
 16 17  2  0
  9 18  1  0
 18 19  1  0
  3 20  1  0
 20 21  2  0
 21 22  1  0
 22 23  1  0
 23 24  2  0
 24 25  1  0
 25 26  1  0
 26 27  2  0
 26 28  1  0
 28 29  2  0
 29 30  1  0
 30 31  1  0
 31 32  1  0
 32 33  1  0
 21 34  1  0
 34 35  2  0
 35  2  1  0
 19  6  1  0
 29 23  1  0
 17 12  1  0
 33 28  1  0
M  END
$$$$
