
     RDKit          2D

 27 30  0  0  0  0  0  0  0  0999 V2000
   -7.5115    2.0718    0.0000 O   0  0  0  0  0  0  0  0  0  0  0  0
   -6.7549    0.7766    0.0000 C   0  0  0  0  0  0  0  0  0  0  0  0
   -7.3579   -0.5968    0.0000 C   0  0  0  0  0  0  0  0  0  0  0  0
   -6.2381   -1.5948    0.0000 C   0  0  0  0  0  0  0  0  0  0  0  0
   -4.9429   -0.8382    0.0000 N   0  0  0  0  0  0  0  0  0  0  0  0
   -3.5695   -1.4412    0.0000 C   0  0  0  0  0  0  0  0  0  0  0  0
   -3.4050   -2.9322    0.0000 O   0  0  0  0  0  0  0  0  0  0  0  0
   -2.3605   -0.5534    0.0000 C   0  0  0  0  0  0  0  0  0  0  0  0
   -0.9871   -1.1564    0.0000 C   0  0  0  0  0  0  0  0  0  0  0  0
    0.2219   -0.2685    0.0000 C   0  0  0  0  0  0  0  0  0  0  0  0
    1.5954   -0.8716    0.0000 C   0  0  0  0  0  0  0  0  0  0  0  0
    2.8043    0.0163    0.0000 C   0  0  0  0  0  0  0  0  0  0  0  0
    2.6399    1.5072    0.0000 N   0  0  0  0  0  0  0  0  0  0  0  0
    3.8489    2.3951    0.0000 N   0  0  0  0  0  0  0  0  0  0  0  0
    5.2223    1.7920    0.0000 C   0  0  0  0  0  0  0  0  0  0  0  0
    6.4313    2.6799    0.0000 O   0  0  0  0  0  0  0  0  0  0  0  0
    5.3868    0.3011    0.0000 C   0  0  0  0  0  0  0  0  0  0  0  0
    4.1778   -0.5868    0.0000 C   0  0  0  0  0  0  0  0  0  0  0  0
    4.3422   -2.0778    0.0000 N   0  0  0  0  0  0  0  0  0  0  0  0
    5.7156   -2.6808    0.0000 C   0  0  0  0  0  0  0  0  0  0  0  0
    6.9246   -1.7930    0.0000 C   0  0  0  0  0  0  0  0  0  0  0  0
    6.7602   -0.3020    0.0000 C   0  0  0  0  0  0  0  0  0  0  0  0
    0.0575    1.2224    0.0000 C   0  0  0  0  0  0  0  0  0  0  0  0
   -1.3159    1.8255    0.0000 C   0  0  0  0  0  0  0  0  0  0  0  0
   -2.5249    0.9376    0.0000 C   0  0  0  0  0  0  0  0  0  0  0  0
   -3.8983    1.5407    0.0000 F   0  0  0  0  0  0  0  0  0  0  0  0
   -5.2623    0.6274    0.0000 N   0  0  0  0  0  0  0  0  0  0  0  0
  1  2  2  0
  2  3  1  0
  3  4  1  0
  4  5  1  0
  5  6  1  0
  6  7  2  0
  6  8  1  0
  8  9  2  0
  9 10  1  0
 10 11  1  0
 11 12  1  0
 12 13  2  0
 13 14  1  0
 14 15  1  0
 15 16  2  0
 15 17  1  0
 17 18  2  0
 18 19  1  0
 19 20  1  0
 20 21  1  0
 21 22  1  0
 10 23  2  0
 23 24  1  0
 24 25  2  0
 25 26  1  0
  5 27  1  0
 27  2  1  0
 25  8  1  0
 18 12  1  0
 22 17  1  0
M  END
$$$$

     RDKit          2D

 20 22  0  0  0  0  0  0  0  0999 V2000
    5.3608   -1.9414    0.0000 O   0  0  0  0  0  0  0  0  0  0  0  0
    3.9391   -1.4629    0.0000 C   0  0  0  0  0  0  0  0  0  0  0  0
    2.8139   -2.4548    0.0000 N   0  0  0  0  0  0  0  0  0  0  0  0
    1.3923   -1.9763    0.0000 N   0  0  0  0  0  0  0  0  0  0  0  0
    1.0959   -0.5059    0.0000 C   0  0  0  0  0  0  0  0  0  0  0  0
   -0.3258   -0.0274    0.0000 C   0  0  0  0  0  0  0  0  0  0  0  0
   -1.4510   -1.0193    0.0000 C   0  0  0  0  0  0  0  0  0  0  0  0
   -2.8726   -0.5409    0.0000 C   0  0  0  0  0  0  0  0  0  0  0  0
   -3.1690    0.9296    0.0000 C   0  0  0  0  0  0  0  0  0  0  0  0
   -4.5907    1.4080    0.0000 C   0  0  0  0  0  0  0  0  0  0  0  0
   -5.7159    0.4161    0.0000 C   0  0  0  0  0  0  0  0  0  0  0  0
   -7.1375    0.8946    0.0000 F   0  0  0  0  0  0  0  0  0  0  0  0
   -5.4194   -1.0543    0.0000 N   0  0  0  0  0  0  0  0  0  0  0  0
   -3.9978   -1.5328    0.0000 C   0  0  0  0  0  0  0  0  0  0  0  0
    2.2211    0.4860    0.0000 C   0  0  0  0  0  0  0  0  0  0  0  0
    3.6427    0.0075    0.0000 C   0  0  0  0  0  0  0  0  0  0  0  0
    4.7679    0.9995    0.0000 C   0  0  0  0  0  0  0  0  0  0  0  0
    4.4715    2.4699    0.0000 C   0  0  0  0  0  0  0  0  0  0  0  0
    3.0498    2.9484    0.0000 C   0  0  0  0  0  0  0  0  0  0  0  0
    1.9246    1.9564    0.0000 C   0  0  0  0  0  0  0  0  0  0  0  0
  1  2  2  0
  2  3  1  0
  3  4  1  0
  4  5  2  0
  5  6  1  0
  6  7  1  0
  7  8  1  0
  8  9  2  0
  9 10  1  0
 10 11  2  0
 11 12  1  0
 11 13  1  0
 13 14  2  0
  5 15  1  0
 15 16  2  0
 16 17  1  0
 17 18  1  0
 18 19  1  0
 19 20  1  0
 16  2  1  0
 14  8  1  0
 20 15  1  0
M  END
$$$$

     RDKit          2D

 26 29  0  0  0  0  0  0  0  0999 V2000
  -10.3294   -0.6784    0.0000 N   0  0  0  0  0  0  0  0  0  0  0  0
   -9.0267    0.0653    0.0000 C   0  0  0  0  0  0  0  0  0  0  0  0
   -7.7313   -0.6911    0.0000 C   0  0  0  0  0  0  0  0  0  0  0  0
   -6.4286    0.0526    0.0000 C   0  0  0  0  0  0  0  0  0  0  0  0
   -5.1333   -0.7038    0.0000 C   0  0  0  0  0  0  0  0  0  0  0  0
   -4.3896   -2.0065    0.0000 C   0  0  0  0  0  0  0  0  0  0  0  0
   -3.6333   -0.7111    0.0000 C   0  0  0  0  0  0  0  0  0  0  0  0
   -2.3306    0.0325    0.0000 C   0  0  0  0  0  0  0  0  0  0  0  0
   -1.0352   -0.7238    0.0000 C   0  0  0  0  0  0  0  0  0  0  0  0
    0.2674    0.0198    0.0000 C   0  0  0  0  0  0  0  0  0  0  0  0
    1.5628   -0.7365    0.0000 C   0  0  0  0  0  0  0  0  0  0  0  0
    2.8655    0.0071    0.0000 C   0  0  0  0  0  0  0  0  0  0  0  0
    2.8728    1.5071    0.0000 N   0  0  0  0  0  0  0  0  0  0  0  0
    4.1755    2.2507    0.0000 N   0  0  0  0  0  0  0  0  0  0  0  0
    5.4709    1.4944    0.0000 C   0  0  0  0  0  0  0  0  0  0  0  0
    6.7736    2.2380    0.0000 O   0  0  0  0  0  0  0  0  0  0  0  0
    5.4635   -0.0056    0.0000 C   0  0  0  0  0  0  0  0  0  0  0  0
    4.1608   -0.7492    0.0000 C   0  0  0  0  0  0  0  0  0  0  0  0
    4.1535   -2.2492    0.0000 C   0  0  0  0  0  0  0  0  0  0  0  0
    5.4489   -3.0056    0.0000 C   0  0  0  0  0  0  0  0  0  0  0  0
    6.7515   -2.2619    0.0000 C   0  0  0  0  0  0  0  0  0  0  0  0
    6.7589   -0.7620    0.0000 C   0  0  0  0  0  0  0  0  0  0  0  0
    0.2748    1.5198    0.0000 C   0  0  0  0  0  0  0  0  0  0  0  0
   -1.0206    2.2761    0.0000 C   0  0  0  0  0  0  0  0  0  0  0  0
   -2.3233    1.5325    0.0000 C   0  0  0  0  0  0  0  0  0  0  0  0
   -3.6186    2.2888    0.0000 F   0  0  0  0  0  0  0  0  0  0  0  0
  1  2  1  0
  2  3  1  0
  3  4  1  0
  4  5  1  0
  5  6  1  0
  6  7  1  0
  7  8  1  0
  8  9  2  0
  9 10  1  0
 10 11  1  0
 11 12  1  0
 12 13  2  0
 13 14  1  0
 14 15  1  0
 15 16  2  0
 15 17  1  0
 17 18  2  0
 18 19  1  0
 19 20  1  0
 20 21  1  0
 21 22  1  0
 10 23  2  0
 23 24  1  0
 24 25  2  0
 25 26  1  0
  7  5  1  0
 25  8  1  0
 18 12  1  0
 22 17  1  0
M  END
$$$$

     RDKit          2D

 36 40  0  0  0  0  0  0  0  0999 V2000
   -0.1473   -0.7625    0.0000 O   0  0  0  0  0  0  0  0  0  0  0  0
    1.3462   -0.9016    0.0000 C   0  0  0  0  0  0  0  0  0  0  0  0
    2.1196    0.3837    0.0000 C   0  0  0  0  0  0  0  0  0  0  0  0
    3.6066    0.5804    0.0000 C   0  0  0  0  0  0  0  0  0  0  0  0
    4.6876   -0.4596    0.0000 N   0  0  0  0  0  0  0  0  0  0  0  0
    6.0936    0.0631    0.0000 C   0  0  0  0  0  0  0  0  0  0  0  0
    6.3439    1.5421    0.0000 C   0  0  0  0  0  0  0  0  0  0  0  0
    7.7499    2.0648    0.0000 C   0  0  0  0  0  0  0  0  0  0  0  0
    8.9992    1.2345    0.0000 C   0  0  0  0  0  0  0  0  0  0  0  0
   10.1748    2.1661    0.0000 C   0  0  0  0  0  0  0  0  0  0  0  0
    9.6522    3.5721    0.0000 C   0  0  0  0  0  0  0  0  0  0  0  0
    8.1535    3.5095    0.0000 C   0  0  0  0  0  0  0  0  0  0  0  0
    4.5485   -1.9531    0.0000 C   0  0  0  0  0  0  0  0  0  0  0  0
    3.2941   -2.7756    0.0000 C   0  0  0  0  0  0  0  0  0  0  0  0
    1.8689   -2.3076    0.0000 N   0  0  0  0  0  0  0  0  0  0  0  0
    0.8290   -3.3886    0.0000 C   0  0  0  0  0  0  0  0  0  0  0  0
    1.2451   -4.8297    0.0000 O   0  0  0  0  0  0  0  0  0  0  0  0
   -0.6271   -3.0284    0.0000 C   0  0  0  0  0  0  0  0  0  0  0  0
   -1.0433   -1.5873    0.0000 C   0  0  0  0  0  0  0  0  0  0  0  0
   -2.4994   -1.2271    0.0000 C   0  0  0  0  0  0  0  0  0  0  0  0
   -2.9156    0.2140    0.0000 C   0  0  0  0  0  0  0  0  0  0  0  0
   -4.3717    0.5741    0.0000 C   0  0  0  0  0  0  0  0  0  0  0  0
   -5.4117   -0.5068    0.0000 N   0  0  0  0  0  0  0  0  0  0  0  0
   -6.8678   -0.1467    0.0000 N   0  0  0  0  0  0  0  0  0  0  0  0
   -7.2839    1.2944    0.0000 C   0  0  0  0  0  0  0  0  0  0  0  0
   -8.7401    1.6546    0.0000 O   0  0  0  0  0  0  0  0  0  0  0  0
   -6.2440    2.3754    0.0000 C   0  0  0  0  0  0  0  0  0  0  0  0
   -4.7879    2.0153    0.0000 C   0  0  0  0  0  0  0  0  0  0  0  0
   -3.7479    3.0962    0.0000 N   0  0  0  0  0  0  0  0  0  0  0  0
   -4.1641    4.5373    0.0000 C   0  0  0  0  0  0  0  0  0  0  0  0
   -5.6202    4.8975    0.0000 C   0  0  0  0  0  0  0  0  0  0  0  0
   -6.6601    3.8165    0.0000 C   0  0  0  0  0  0  0  0  0  0  0  0
   -3.5394   -2.3081    0.0000 C   0  0  0  0  0  0  0  0  0  0  0  0
   -3.1232   -3.7492    0.0000 C   0  0  0  0  0  0  0  0  0  0  0  0
   -1.6671   -4.1094    0.0000 C   0  0  0  0  0  0  0  0  0  0  0  0
   -1.2510   -5.5505    0.0000 F   0  0  0  0  0  0  0  0  0  0  0  0
  1  2  2  0
  2  3  1  0
  3  4  1  0
  4  5  1  0
  5  6  1  0
  6  7  1  0
  7  8  1  0
  8  9  1  0
  9 10  1  0
 10 11  1  0
 11 12  1  0
  5 13  1  0
 13 14  1  0
 14 15  1  0
 15 16  1  0
 16 17  2  0
 16 18  1  0
 18 19  2  0
 19 20  1  0
 20 21  1  0
 21 22  1  0
 22 23  2  0
 23 24  1  0
 24 25  1  0
 25 26  2  0
 25 27  1  0
 27 28  2  0
 28 29  1  0
 29 30  1  0
 30 31  1  0
 31 32  1  0
 20 33  2  0
 33 34  1  0
 34 35  2  0
 35 36  1  0
 15  2  1  0
 35 18  1  0
 12  8  1  0
 28 22  1  0
 32 27  1  0
M  END
$$$$

     RDKit          2D

 28 31  0  0  0  0  0  0  0  0999 V2000
   -0.4528    0.9185    0.0000 C   0  0  0  0  0  0  0  0  0  0  0  0
   -1.7016    0.0874    0.0000 N   0  0  0  0  0  0  0  0  0  0  0  0
   -3.0457    0.7533    0.0000 C   0  0  0  0  0  0  0  0  0  0  0  0
   -3.4680   -0.6860    0.0000 C   0  0  0  0  0  0  0  0  0  0  0  0
   -4.9257   -1.0399    0.0000 O   0  0  0  0  0  0  0  0  0  0  0  0
   -2.4327   -1.7714    0.0000 C   0  0  0  0  0  0  0  0  0  0  0  0
   -2.8550   -3.2108    0.0000 C   0  0  0  0  0  0  0  0  0  0  0  0
   -1.8197   -4.2962    0.0000 C   0  0  0  0  0  0  0  0  0  0  0  0
   -0.3621   -3.9423    0.0000 C   0  0  0  0  0  0  0  0  0  0  0  0
    0.0603   -2.5030    0.0000 C   0  0  0  0  0  0  0  0  0  0  0  0
    1.5179   -2.1491    0.0000 C   0  0  0  0  0  0  0  0  0  0  0  0
    1.9403   -0.7098    0.0000 C   0  0  0  0  0  0  0  0  0  0  0  0
    0.9050    0.3757    0.0000 N   0  0  0  0  0  0  0  0  0  0  0  0
    1.3273    1.8150    0.0000 N   0  0  0  0  0  0  0  0  0  0  0  0
    2.7850    2.1689    0.0000 C   0  0  0  0  0  0  0  0  0  0  0  0
    3.2073    3.6082    0.0000 O   0  0  0  0  0  0  0  0  0  0  0  0
    3.8203    1.0834    0.0000 C   0  0  0  0  0  0  0  0  0  0  0  0
    3.3979   -0.3559    0.0000 C   0  0  0  0  0  0  0  0  0  0  0  0
    4.4332   -1.4413    0.0000 C   0  0  0  0  0  0  0  0  0  0  0  0
    5.8909   -1.0874    0.0000 C   0  0  0  0  0  0  0  0  0  0  0  0
    6.3132    0.3519    0.0000 C   0  0  0  0  0  0  0  0  0  0  0  0
    5.2779    1.4373    0.0000 C   0  0  0  0  0  0  0  0  0  0  0  0
   -0.9750   -1.4175    0.0000 C   0  0  0  0  0  0  0  0  0  0  0  0
   -4.5364    0.9193    0.0000 C   0  0  0  0  0  0  0  0  0  0  0  0
   -5.1381    2.2934    0.0000 C   0  0  0  0  0  0  0  0  0  0  0  0
   -4.2489    3.5014    0.0000 C   0  0  0  0  0  0  0  0  0  0  0  0
   -2.7581    3.3354    0.0000 C   0  0  0  0  0  0  0  0  0  0  0  0
   -2.1565    1.9614    0.0000 C   0  0  0  0  0  0  0  0  0  0  0  0
  1  2  1  0
  2  3  1  0
  3  4  1  0
  4  5  2  0
  4  6  1  0
  6  7  2  0
  7  8  1  0
  8  9  2  0
  9 10  1  0
 10 11  1  0
 11 12  1  0
 12 13  2  0
 13 14  1  0
 14 15  1  0
 15 16  2  0
 15 17  1  0
 17 18  2  0
 18 19  1  0
 19 20  1  0
 20 21  1  0
 21 22  1  0
 10 23  2  0
  3 24  1  0
 24 25  1  0
 25 26  1  0
 26 27  1  0
 27 28  1  0
 28  3  1  0
 23  6  1  0
 18 12  1  0
 22 17  1  0
M  END
$$$$

     RDKit          2D

 28 31  0  0  0  0  0  0  0  0999 V2000
   -5.3168    4.5702    0.0000 C   0  0  0  0  0  0  0  0  0  0  0  0
   -6.1683    3.3354    0.0000 C   0  0  0  0  0  0  0  0  0  0  0  0
   -5.5246    1.9805    0.0000 N   0  0  0  0  0  0  0  0  0  0  0  0
   -6.2423    0.6634    0.0000 C   0  0  0  0  0  0  0  0  0  0  0  0
   -5.2115   -0.4263    0.0000 C   0  0  0  0  0  0  0  0  0  0  0  0
   -3.8566    0.2174    0.0000 N   0  0  0  0  0  0  0  0  0  0  0  0
   -2.5395   -0.5003    0.0000 C   0  0  0  0  0  0  0  0  0  0  0  0
   -2.5025   -1.9999    0.0000 C   0  0  0  0  0  0  0  0  0  0  0  0
   -3.7826   -2.7817    0.0000 O   0  0  0  0  0  0  0  0  0  0  0  0
   -1.1853   -2.7176    0.0000 C   0  0  0  0  0  0  0  0  0  0  0  0
   -1.1484   -4.2171    0.0000 C   0  0  0  0  0  0  0  0  0  0  0  0
    0.1688   -4.9349    0.0000 C   0  0  0  0  0  0  0  0  0  0  0  0
    1.4489   -4.1531    0.0000 C   0  0  0  0  0  0  0  0  0  0  0  0
    1.4119   -2.6535    0.0000 C   0  0  0  0  0  0  0  0  0  0  0  0
    2.6921   -1.8717    0.0000 C   0  0  0  0  0  0  0  0  0  0  0  0
    2.6551   -0.3722    0.0000 C   0  0  0  0  0  0  0  0  0  0  0  0
    1.3380    0.3455    0.0000 N   0  0  0  0  0  0  0  0  0  0  0  0
    1.3010    1.8451    0.0000 N   0  0  0  0  0  0  0  0  0  0  0  0
    2.5811    2.6269    0.0000 C   0  0  0  0  0  0  0  0  0  0  0  0
    2.5442    4.1264    0.0000 O   0  0  0  0  0  0  0  0  0  0  0  0
    3.8983    1.9091    0.0000 C   0  0  0  0  0  0  0  0  0  0  0  0
    3.9353    0.4096    0.0000 C   0  0  0  0  0  0  0  0  0  0  0  0
    5.2524   -0.3081    0.0000 C   0  0  0  0  0  0  0  0  0  0  0  0
    6.5326    0.4737    0.0000 C   0  0  0  0  0  0  0  0  0  0  0  0
    6.4956    1.9732    0.0000 C   0  0  0  0  0  0  0  0  0  0  0  0
    5.1784    2.6909    0.0000 C   0  0  0  0  0  0  0  0  0  0  0  0
    0.0948   -1.9358    0.0000 C   0  0  0  0  0  0  0  0  0  0  0  0
   -4.0501    1.7049    0.0000 C   0  0  0  0  0  0  0  0  0  0  0  0
  1  2  1  0
  2  3  1  0
  3  4  1  0
  4  5  1  0
  5  6  1  0
  6  7  1  0
  7  8  1  0
  8  9  2  0
  8 10  1  0
 10 11  2  0
 11 12  1  0
 12 13  2  0
 13 14  1  0
 14 15  1  0
 15 16  1  0
 16 17  2  0
 17 18  1  0
 18 19  1  0
 19 20  2  0
 19 21  1  0
 21 22  2  0
 22 23  1  0
 23 24  1  0
 24 25  1  0
 25 26  1  0
 14 27  2  0
  6 28  1  0
 28  3  1  0
 27 10  1  0
 22 16  1  0
 26 21  1  0
M  END
$$$$

     RDKit          2D

 30 33  0  0  0  0  0  0  0  0999 V2000
   -2.6631   -3.5690    0.0000 O   0  0  0  0  0  0  0  0  0  0  0  0
   -1.5296   -2.5866    0.0000 C   0  0  0  0  0  0  0  0  0  0  0  0
   -1.8137   -1.1137    0.0000 N   0  0  0  0  0  0  0  0  0  0  0  0
   -3.2313   -0.6234    0.0000 C   0  0  0  0  0  0  0  0  0  0  0  0
   -3.5154    0.8495    0.0000 C   0  0  0  0  0  0  0  0  0  0  0  0
   -4.9330    1.3399    0.0000 C   0  0  0  0  0  0  0  0  0  0  0  0
   -5.2172    2.8127    0.0000 C   0  0  0  0  0  0  0  0  0  0  0  0
   -6.6347    3.3031    0.0000 C   0  0  0  0  0  0  0  0  0  0  0  0
   -7.7682    2.3206    0.0000 C   0  0  0  0  0  0  0  0  0  0  0  0
   -7.4841    0.8477    0.0000 C   0  0  0  0  0  0  0  0  0  0  0  0
   -6.0665    0.3574    0.0000 C   0  0  0  0  0  0  0  0  0  0  0  0
   -5.7824   -1.1155    0.0000 F   0  0  0  0  0  0  0  0  0  0  0  0
   -0.1120   -3.0769    0.0000 C   0  0  0  0  0  0  0  0  0  0  0  0
    0.1721   -4.5498    0.0000 C   0  0  0  0  0  0  0  0  0  0  0  0
    1.5897   -5.0401    0.0000 C   0  0  0  0  0  0  0  0  0  0  0  0
    2.7231   -4.0576    0.0000 C   0  0  0  0  0  0  0  0  0  0  0  0
    2.4390   -2.5848    0.0000 C   0  0  0  0  0  0  0  0  0  0  0  0
    3.5725   -1.6023    0.0000 C   0  0  0  0  0  0  0  0  0  0  0  0
    3.2883   -0.1295    0.0000 C   0  0  0  0  0  0  0  0  0  0  0  0
    1.8708    0.3609    0.0000 N   0  0  0  0  0  0  0  0  0  0  0  0
    1.5866    1.8337    0.0000 N   0  0  0  0  0  0  0  0  0  0  0  0
    2.7201    2.8162    0.0000 C   0  0  0  0  0  0  0  0  0  0  0  0
    2.4360    4.2891    0.0000 O   0  0  0  0  0  0  0  0  0  0  0  0
    4.1377    2.3259    0.0000 C   0  0  0  0  0  0  0  0  0  0  0  0
    4.4218    0.8530    0.0000 C   0  0  0  0  0  0  0  0  0  0  0  0
    5.8394    0.3626    0.0000 C   0  0  0  0  0  0  0  0  0  0  0  0
    6.9728    1.3451    0.0000 C   0  0  0  0  0  0  0  0  0  0  0  0
    6.6887    2.8180    0.0000 C   0  0  0  0  0  0  0  0  0  0  0  0
    5.2711    3.3083    0.0000 C   0  0  0  0  0  0  0  0  0  0  0  0
    1.0214   -2.0944    0.0000 C   0  0  0  0  0  0  0  0  0  0  0  0
  1  2  2  0
  2  3  1  0
  3  4  1  0
  4  5  1  0
  5  6  1  0
  6  7  2  0
  7  8  1  0
  8  9  2  0
  9 10  1  0
 10 11  2  0
 11 12  1  0
  2 13  1  0
 13 14  2  0
 14 15  1  0
 15 16  2  0
 16 17  1  0
 17 18  1  0
 18 19  1  0
 19 20  2  0
 20 21  1  0
 21 22  1  0
 22 23  2  0
 22 24  1  0
 24 25  2  0
 25 26  1  0
 26 27  1  0
 27 28  1  0
 28 29  1  0
 17 30  2  0
 11  6  1  0
 30 13  1  0
 25 19  1  0
 29 24  1  0
M  END
$$$$

     RDKit          2D

 20 22  0  0  0  0  0  0  0  0999 V2000
    5.1692   -2.2180    0.0000 O   0  0  0  0  0  0  0  0  0  0  0  0
    3.7908   -1.6265    0.0000 C   0  0  0  0  0  0  0  0  0  0  0  0
    2.5893   -2.5246    0.0000 N   0  0  0  0  0  0  0  0  0  0  0  0
    1.2109   -1.9331    0.0000 N   0  0  0  0  0  0  0  0  0  0  0  0
    1.0338   -0.4436    0.0000 C   0  0  0  0  0  0  0  0  0  0  0  0
   -0.3446    0.1479    0.0000 C   0  0  0  0  0  0  0  0  0  0  0  0
   -1.5461   -0.7502    0.0000 C   0  0  0  0  0  0  0  0  0  0  0  0
   -2.9245   -0.1587    0.0000 C   0  0  0  0  0  0  0  0  0  0  0  0
   -3.1015    1.3308    0.0000 C   0  0  0  0  0  0  0  0  0  0  0  0
   -4.4800    1.9223    0.0000 C   0  0  0  0  0  0  0  0  0  0  0  0
   -5.6815    1.0242    0.0000 C   0  0  0  0  0  0  0  0  0  0  0  0
   -5.5045   -0.4653    0.0000 C   0  0  0  0  0  0  0  0  0  0  0  0
   -6.7059   -1.3633    0.0000 Cl  0  0  0  0  0  0  0  0  0  0  0  0
   -4.1260   -1.0568    0.0000 C   0  0  0  0  0  0  0  0  0  0  0  0
    2.2353    0.4544    0.0000 C   0  0  0  0  0  0  0  0  0  0  0  0
    3.6138   -0.1370    0.0000 C   0  0  0  0  0  0  0  0  0  0  0  0
    4.8152    0.7610    0.0000 C   0  0  0  0  0  0  0  0  0  0  0  0
    4.6382    2.2505    0.0000 C   0  0  0  0  0  0  0  0  0  0  0  0
    3.2598    2.8420    0.0000 C   0  0  0  0  0  0  0  0  0  0  0  0
    2.0583    1.9440    0.0000 C   0  0  0  0  0  0  0  0  0  0  0  0
  1  2  2  0
  2  3  1  0
  3  4  1  0
  4  5  2  0
  5  6  1  0
  6  7  1  0
  7  8  1  0
  8  9  2  0
  9 10  1  0
 10 11  2  0
 11 12  1  0
 12 13  1  0
 12 14  2  0
  5 15  1  0
 15 16  2  0
 16 17  1  0
 17 18  1  0
 18 19  1  0
 19 20  1  0
 16  2  1  0
 14  8  1  0
 20 15  1  0
M  END
$$$$

     RDKit          2D

 30 33  0  0  0  0  0  0  0  0999 V2000
   -5.5402    2.2684    0.0000 C   0  0  0  0  0  0  0  0  0  0  0  0
   -4.0688    2.5599    0.0000 C   0  0  0  0  0  0  0  0  0  0  0  0
   -3.0806    1.4314    0.0000 N   0  0  0  0  0  0  0  0  0  0  0  0
   -3.5638    0.0114    0.0000 C   0  0  0  0  0  0  0  0  0  0  0  0
   -5.0352   -0.2802    0.0000 C   0  0  0  0  0  0  0  0  0  0  0  0
   -6.0234    0.8483    0.0000 O   0  0  0  0  0  0  0  0  0  0  0  0
   -5.5185   -1.7002    0.0000 N   0  0  0  0  0  0  0  0  0  0  0  0
   -4.6537   -2.9258    0.0000 C   0  0  0  0  0  0  0  0  0  0  0  0
   -5.5521   -4.1270    0.0000 C   0  0  0  0  0  0  0  0  0  0  0  0
   -6.9721   -3.6438    0.0000 C   0  0  0  0  0  0  0  0  0  0  0  0
   -6.9513   -2.1439    0.0000 C   0  0  0  0  0  0  0  0  0  0  0  0
   -1.6092    1.7229    0.0000 C   0  0  0  0  0  0  0  0  0  0  0  0
   -0.6210    0.5944    0.0000 C   0  0  0  0  0  0  0  0  0  0  0  0
    0.8504    0.8859    0.0000 C   0  0  0  0  0  0  0  0  0  0  0  0
    1.8385   -0.2426    0.0000 C   0  0  0  0  0  0  0  0  0  0  0  0
    3.3099    0.0490    0.0000 C   0  0  0  0  0  0  0  0  0  0  0  0
    3.7932    1.4690    0.0000 N   0  0  0  0  0  0  0  0  0  0  0  0
    5.2646    1.7605    0.0000 N   0  0  0  0  0  0  0  0  0  0  0  0
    6.2527    0.6320    0.0000 C   0  0  0  0  0  0  0  0  0  0  0  0
    7.7241    0.9236    0.0000 O   0  0  0  0  0  0  0  0  0  0  0  0
    5.7695   -0.7880    0.0000 C   0  0  0  0  0  0  0  0  0  0  0  0
    4.2981   -1.0795    0.0000 C   0  0  0  0  0  0  0  0  0  0  0  0
    3.8149   -2.4996    0.0000 C   0  0  0  0  0  0  0  0  0  0  0  0
    4.8030   -3.6281    0.0000 C   0  0  0  0  0  0  0  0  0  0  0  0
    6.2744   -3.3365    0.0000 C   0  0  0  0  0  0  0  0  0  0  0  0
    6.7577   -1.9165    0.0000 C   0  0  0  0  0  0  0  0  0  0  0  0
    1.3336    2.3060    0.0000 C   0  0  0  0  0  0  0  0  0  0  0  0
    0.3454    3.4345    0.0000 C   0  0  0  0  0  0  0  0  0  0  0  0
   -1.1260    3.1430    0.0000 C   0  0  0  0  0  0  0  0  0  0  0  0
   -2.1141    4.2715    0.0000 F   0  0  0  0  0  0  0  0  0  0  0  0
  1  2  1  0
  2  3  1  0
  3  4  1  0
  4  5  1  0
  5  6  2  0
  5  7  1  0
  7  8  1  0
  8  9  1  0
  9 10  1  0
 10 11  1  0
  3 12  1  0
 12 13  2  0
 13 14  1  0
 14 15  1  0
 15 16  1  0
 16 17  2  0
 17 18  1  0
 18 19  1  0
 19 20  2  0
 19 21  1  0
 21 22  2  0
 22 23  1  0
 23 24  1  0
 24 25  1  0
 25 26  1  0
 14 27  2  0
 27 28  1  0
 28 29  2  0
 29 30  1  0
 11  7  1  0
 29 12  1  0
 22 16  1  0
 26 21  1  0
M  END
$$$$

     RDKit          2D

 24 26  0  0  0  0  0  0  0  0999 V2000
   -4.8799    4.6949    0.0000 C   0  0  0  0  0  0  0  0  0  0  0  0
   -3.8855    3.5719    0.0000 N   0  0  0  0  0  0  0  0  0  0  0  0
   -4.3609    2.1492    0.0000 C   0  0  0  0  0  0  0  0  0  0  0  0
   -3.3666    1.0261    0.0000 C   0  0  0  0  0  0  0  0  0  0  0  0
   -3.8420   -0.3965    0.0000 C   0  0  0  0  0  0  0  0  0  0  0  0
   -5.3117   -0.6961    0.0000 O   0  0  0  0  0  0  0  0  0  0  0  0
   -2.8476   -1.5196    0.0000 C   0  0  0  0  0  0  0  0  0  0  0  0
   -1.3778   -1.2200    0.0000 C   0  0  0  0  0  0  0  0  0  0  0  0
   -0.3835   -2.3430    0.0000 C   0  0  0  0  0  0  0  0  0  0  0  0
    1.0863   -2.0434    0.0000 C   0  0  0  0  0  0  0  0  0  0  0  0
    1.5617   -0.6207    0.0000 C   0  0  0  0  0  0  0  0  0  0  0  0
    0.5673    0.5023    0.0000 N   0  0  0  0  0  0  0  0  0  0  0  0
    1.0428    1.9250    0.0000 N   0  0  0  0  0  0  0  0  0  0  0  0
    2.5125    2.2246    0.0000 C   0  0  0  0  0  0  0  0  0  0  0  0
    2.9879    3.6473    0.0000 O   0  0  0  0  0  0  0  0  0  0  0  0
    3.5069    1.1016    0.0000 C   0  0  0  0  0  0  0  0  0  0  0  0
    3.0315   -0.3211    0.0000 C   0  0  0  0  0  0  0  0  0  0  0  0
    4.0258   -1.4441    0.0000 C   0  0  0  0  0  0  0  0  0  0  0  0
    5.4956   -1.1445    0.0000 C   0  0  0  0  0  0  0  0  0  0  0  0
    5.9710    0.2781    0.0000 C   0  0  0  0  0  0  0  0  0  0  0  0
    4.9767    1.4012    0.0000 C   0  0  0  0  0  0  0  0  0  0  0  0
   -0.8589   -3.7657    0.0000 C   0  0  0  0  0  0  0  0  0  0  0  0
   -2.3286   -4.0653    0.0000 C   0  0  0  0  0  0  0  0  0  0  0  0
   -3.3230   -2.9422    0.0000 N   0  0  0  0  0  0  0  0  0  0  0  0
  1  2  1  0
  2  3  1  0
  3  4  1  0
  4  5  1  0
  5  6  2  0
  5  7  1  0
  7  8  2  0
  8  9  1  0
  9 10  1  0
 10 11  1  0
 11 12  2  0
 12 13  1  0
 13 14  1  0
 14 15  2  0
 14 16  1  0
 16 17  2  0
 17 18  1  0
 18 19  1  0
 19 20  1  0
 20 21  1  0
  9 22  2  0
 22 23  1  0
 23 24  2  0
 24  7  1  0
 17 11  1  0
 21 16  1  0
M  END
$$$$

     RDKit          2D

 17 19  0  0  0  0  0  0  0  0999 V2000
    2.0285   -2.2822    0.0000 O   0  0  0  0  0  0  0  0  0  0  0  0
    2.4088   -0.1153    0.0000 C   0  0  0  0  0  0  0  0  0  0  0  0
    1.6837    0.4052    0.0000 C   0  0  0  0  0  0  0  0  0  0  0  0
    0.9933    1.5680    0.0000 S   0  0  0  0  0  0  0  0  0  0  0  0
    2.4369    1.9754    0.0000 C   0  0  0  0  0  0  0  0  0  0  0  0
    3.6555    1.1007    0.0000 C   0  0  0  0  0  0  0  0  0  0  0  0
    3.7314   -0.3974    0.0000 N   0  0  0  0  0  0  0  0  0  0  0  0
    2.6075   -1.3908    0.0000 C   0  0  0  0  0  0  0  0  0  0  0  0
    1.1301   -1.1314    0.0000 C   0  0  0  0  0  0  0  0  0  0  0  0
    0.4117    0.1853    0.0000 N   0  0  0  0  0  0  0  0  0  0  0  0
   -1.0864    0.1094    0.0000 C   0  0  0  0  0  0  0  0  0  0  0  0
   -1.9012    1.3688    0.0000 C   0  0  0  0  0  0  0  0  0  0  0  0
   -3.3993    1.2929    0.0000 C   0  0  0  0  0  0  0  0  0  0  0  0
   -4.0825   -0.0425    0.0000 C   0  0  0  0  0  0  0  0  0  0  0  0
   -5.5806   -0.1184    0.0000 F   0  0  0  0  0  0  0  0  0  0  0  0
   -3.2677   -1.3019    0.0000 C   0  0  0  0  0  0  0  0  0  0  0  0
   -1.7697   -1.2259    0.0000 C   0  0  0  0  0  0  0  0  0  0  0  0
  1  2  2  0
  2  3  1  0
  3  4  1  0
  4  5  1  0
  5  6  1  0
  6  7  1  0
  7  8  1  0
  8  9  1  0
  9 10  1  0
 10 11  1  0
 11 12  2  0
 12 13  1  0
 13 14  2  0
 14 15  1  0
 14 16  1  0
 16 17  2  0
  7  2  1  0
 17 11  1  0
 10  4  1  0
M  END
$$$$

     RDKit          2D

 28 31  0  0  0  0  0  0  0  0999 V2000
   -8.7362    1.0809    0.0000 C   0  0  0  0  0  0  0  0  0  0  0  0
   -7.3683    0.4656    0.0000 N   0  0  0  0  0  0  0  0  0  0  0  0
   -6.1514    1.3426    0.0000 C   0  0  0  0  0  0  0  0  0  0  0  0
   -4.7834    0.7273    0.0000 C   0  0  0  0  0  0  0  0  0  0  0  0
   -4.6323   -0.7651    0.0000 N   0  0  0  0  0  0  0  0  0  0  0  0
   -3.2643   -1.3805    0.0000 C   0  0  0  0  0  0  0  0  0  0  0  0
   -3.1132   -2.8728    0.0000 O   0  0  0  0  0  0  0  0  0  0  0  0
   -2.0474   -0.5034    0.0000 C   0  0  0  0  0  0  0  0  0  0  0  0
   -0.6795   -1.1188    0.0000 C   0  0  0  0  0  0  0  0  0  0  0  0
    0.5374   -0.2417    0.0000 C   0  0  0  0  0  0  0  0  0  0  0  0
    1.9054   -0.8571    0.0000 C   0  0  0  0  0  0  0  0  0  0  0  0
    3.1223    0.0199    0.0000 C   0  0  0  0  0  0  0  0  0  0  0  0
    2.9712    1.5123    0.0000 N   0  0  0  0  0  0  0  0  0  0  0  0
    4.1881    2.3893    0.0000 N   0  0  0  0  0  0  0  0  0  0  0  0
    5.5561    1.7740    0.0000 C   0  0  0  0  0  0  0  0  0  0  0  0
    6.7730    2.6510    0.0000 O   0  0  0  0  0  0  0  0  0  0  0  0
    5.7071    0.2816    0.0000 C   0  0  0  0  0  0  0  0  0  0  0  0
    4.4903   -0.5954    0.0000 C   0  0  0  0  0  0  0  0  0  0  0  0
    4.6413   -2.0878    0.0000 C   0  0  0  0  0  0  0  0  0  0  0  0
    6.0093   -2.7031    0.0000 C   0  0  0  0  0  0  0  0  0  0  0  0
    7.2262   -1.8261    0.0000 C   0  0  0  0  0  0  0  0  0  0  0  0
    7.0751   -0.3337    0.0000 C   0  0  0  0  0  0  0  0  0  0  0  0
    0.3863    1.2506    0.0000 C   0  0  0  0  0  0  0  0  0  0  0  0
   -0.9816    1.8660    0.0000 C   0  0  0  0  0  0  0  0  0  0  0  0
   -2.1985    0.9889    0.0000 C   0  0  0  0  0  0  0  0  0  0  0  0
   -3.5665    1.6043    0.0000 F   0  0  0  0  0  0  0  0  0  0  0  0
   -5.8492   -1.6421    0.0000 C   0  0  0  0  0  0  0  0  0  0  0  0
   -7.2172   -1.0268    0.0000 C   0  0  0  0  0  0  0  0  0  0  0  0
  1  2  1  0
  2  3  1  0
  3  4  1  0
  4  5  1  0
  5  6  1  0
  6  7  2  0
  6  8  1  0
  8  9  2  0
  9 10  1  0
 10 11  1  0
 11 12  1  0
 12 13  2  0
 13 14  1  0
 14 15  1  0
 15 16  2  0
 15 17  1  0
 17 18  2  0
 18 19  1  0
 19 20  1  0
 20 21  1  0
 21 22  1  0
 10 23  2  0
 23 24  1  0
 24 25  2  0
 25 26  1  0
  5 27  1  0
 27 28  1  0
 28  2  1  0
 25  8  1  0
 18 12  1  0
 22 17  1  0
M  END
$$$$

     RDKit          2D

 24 26  0  0  0  0  0  0  0  0999 V2000
    6.7930    1.9693    0.0000 C   0  0  0  0  0  0  0  0  0  0  0  0
    5.3002    2.1164    0.0000 C   0  0  0  0  0  0  0  0  0  0  0  0
    4.6812    3.4827    0.0000 C   0  0  0  0  0  0  0  0  0  0  0  0
    4.4264    0.8972    0.0000 C   0  0  0  0  0  0  0  0  0  0  0  0
    4.6707   -0.5828    0.0000 C   0  0  0  0  0  0  0  0  0  0  0  0
    3.1907   -0.8271    0.0000 C   0  0  0  0  0  0  0  0  0  0  0  0
    2.3170   -2.0463    0.0000 C   0  0  0  0  0  0  0  0  0  0  0  0
    2.9360   -3.4127    0.0000 C   0  0  0  0  0  0  0  0  0  0  0  0
    2.0622   -4.6319    0.0000 N   0  0  0  0  0  0  0  0  0  0  0  0
    4.4288   -3.5597    0.0000 O   0  0  0  0  0  0  0  0  0  0  0  0
    2.9465    0.6529    0.0000 C   0  0  0  0  0  0  0  0  0  0  0  0
    1.7272    1.5266    0.0000 C   0  0  0  0  0  0  0  0  0  0  0  0
    0.3609    0.9076    0.0000 C   0  0  0  0  0  0  0  0  0  0  0  0
   -0.8583    1.7814    0.0000 C   0  0  0  0  0  0  0  0  0  0  0  0
   -2.2246    1.1624    0.0000 N   0  0  0  0  0  0  0  0  0  0  0  0
   -2.3717   -0.3304    0.0000 C   0  0  0  0  0  0  0  0  0  0  0  0
   -3.7381   -0.9494    0.0000 C   0  0  0  0  0  0  0  0  0  0  0  0
   -4.9324   -1.8569    0.0000 C   0  0  0  0  0  0  0  0  0  0  0  0
   -6.3866   -1.4890    0.0000 C   0  0  0  0  0  0  0  0  0  0  0  0
   -7.0056   -0.1226    0.0000 C   0  0  0  0  0  0  0  0  0  0  0  0
   -6.3233    1.2132    0.0000 C   0  0  0  0  0  0  0  0  0  0  0  0
   -4.8535    1.5127    0.0000 C   0  0  0  0  0  0  0  0  0  0  0  0
   -3.4439    2.0362    0.0000 C   0  0  0  0  0  0  0  0  0  0  0  0
   -3.7029    0.5502    0.0000 C   0  0  0  0  0  0  0  0  0  0  0  0
  1  2  1  0
  2  3  1  0
  2  4  1  0
  4  5  2  0
  5  6  1  0
  6  7  1  0
  7  8  1  0
  8  9  1  0
  8 10  2  0
  6 11  2  0
 11 12  1  0
 12 13  1  0
 13 14  1  0
 14 15  1  0
 15 16  1  0
 16 17  2  0
 17 18  1  0
 18 19  1  0
 19 20  1  0
 20 21  1  0
 21 22  1  0
 22 23  2  0
 22 24  1  0
 11  4  1  0
 23 15  1  0
 24 17  1  0
M  END
$$$$

     RDKit          2D

 34 38  0  0  0  0  0  0  0  0999 V2000
   -0.9809   -3.6239    0.0000 O   0  0  0  0  0  0  0  0  0  0  0  0
   -1.3462   -2.1691    0.0000 C   0  0  0  0  0  0  0  0  0  0  0  0
   -0.2689   -1.1253    0.0000 C   0  0  0  0  0  0  0  0  0  0  0  0
    1.1737   -1.5363    0.0000 C   0  0  0  0  0  0  0  0  0  0  0  0
    2.2509   -0.4925    0.0000 C   0  0  0  0  0  0  0  0  0  0  0  0
    3.6935   -0.9035    0.0000 C   0  0  0  0  0  0  0  0  0  0  0  0
    4.7707    0.1403    0.0000 C   0  0  0  0  0  0  0  0  0  0  0  0
    4.4054    1.5951    0.0000 N   0  0  0  0  0  0  0  0  0  0  0  0
    5.4827    2.6389    0.0000 N   0  0  0  0  0  0  0  0  0  0  0  0
    6.9253    2.2279    0.0000 C   0  0  0  0  0  0  0  0  0  0  0  0
    8.0025    3.2717    0.0000 O   0  0  0  0  0  0  0  0  0  0  0  0
    7.2906    0.7731    0.0000 C   0  0  0  0  0  0  0  0  0  0  0  0
    6.2133   -0.2707    0.0000 C   0  0  0  0  0  0  0  0  0  0  0  0
    6.5787   -1.7256    0.0000 N   0  0  0  0  0  0  0  0  0  0  0  0
    8.0213   -2.1366    0.0000 C   0  0  0  0  0  0  0  0  0  0  0  0
    9.0985   -1.0928    0.0000 C   0  0  0  0  0  0  0  0  0  0  0  0
    8.7332    0.3620    0.0000 C   0  0  0  0  0  0  0  0  0  0  0  0
    1.8856    0.9623    0.0000 C   0  0  0  0  0  0  0  0  0  0  0  0
    0.4430    1.3734    0.0000 C   0  0  0  0  0  0  0  0  0  0  0  0
   -0.6343    0.3296    0.0000 C   0  0  0  0  0  0  0  0  0  0  0  0
   -2.0769    0.7406    0.0000 F   0  0  0  0  0  0  0  0  0  0  0  0
   -2.7888   -1.7580    0.0000 N   0  0  0  0  0  0  0  0  0  0  0  0
   -3.1541   -0.3032    0.0000 C   0  0  0  0  0  0  0  0  0  0  0  0
   -4.5967    0.1078    0.0000 C   0  0  0  0  0  0  0  0  0  0  0  0
   -5.6739   -0.9360    0.0000 N   0  0  0  0  0  0  0  0  0  0  0  0
   -7.1165   -0.5250    0.0000 C   0  0  0  0  0  0  0  0  0  0  0  0
   -8.1938   -1.5688    0.0000 O   0  0  0  0  0  0  0  0  0  0  0  0
   -7.4819    0.9299    0.0000 N   0  0  0  0  0  0  0  0  0  0  0  0
   -8.8736    1.4894    0.0000 C   0  0  0  0  0  0  0  0  0  0  0  0
   -8.7715    2.9860    0.0000 C   0  0  0  0  0  0  0  0  0  0  0  0
   -7.3166    3.3513    0.0000 C   0  0  0  0  0  0  0  0  0  0  0  0
   -6.5196    2.0806    0.0000 C   0  0  0  0  0  0  0  0  0  0  0  0
   -5.3086   -2.3908    0.0000 C   0  0  0  0  0  0  0  0  0  0  0  0
   -3.8660   -2.8018    0.0000 C   0  0  0  0  0  0  0  0  0  0  0  0
  1  2  2  0
  2  3  1  0
  3  4  2  0
  4  5  1  0
  5  6  1  0
  6  7  1  0
  7  8  2  0
  8  9  1  0
  9 10  1  0
 10 11  2  0
 10 12  1  0
 12 13  2  0
 13 14  1  0
 14 15  1  0
 15 16  1  0
 16 17  1  0
  5 18  2  0
 18 19  1  0
 19 20  2  0
 20 21  1  0
  2 22  1  0
 22 23  1  0
 23 24  1  0
 24 25  1  0
 25 26  1  0
 26 27  2  0
 26 28  1  0
 28 29  1  0
 29 30  1  0
 30 31  1  0
 31 32  1  0
 25 33  1  0
 33 34  1  0
 20  3  1  0
 34 22  1  0
 13  7  1  0
 32 28  1  0
 17 12  1  0
M  END
$$$$

     RDKit          2D

 29 32  0  0  0  0  0  0  0  0999 V2000
   -8.6570    2.2047    0.0000 O   0  0  0  0  0  0  0  0  0  0  0  0
   -8.4575    0.7181    0.0000 C   0  0  0  0  0  0  0  0  0  0  0  0
   -7.0703    0.1474    0.0000 N   0  0  0  0  0  0  0  0  0  0  0  0
   -5.8825    1.0635    0.0000 C   0  0  0  0  0  0  0  0  0  0  0  0
   -4.4953    0.4929    0.0000 C   0  0  0  0  0  0  0  0  0  0  0  0
   -4.2959   -0.9938    0.0000 N   0  0  0  0  0  0  0  0  0  0  0  0
   -2.9086   -1.5644    0.0000 C   0  0  0  0  0  0  0  0  0  0  0  0
   -2.7092   -3.0511    0.0000 O   0  0  0  0  0  0  0  0  0  0  0  0
   -1.7208   -0.6484    0.0000 C   0  0  0  0  0  0  0  0  0  0  0  0
   -0.3336   -1.2190    0.0000 C   0  0  0  0  0  0  0  0  0  0  0  0
    0.8542   -0.3029    0.0000 C   0  0  0  0  0  0  0  0  0  0  0  0
    2.2414   -0.8735    0.0000 C   0  0  0  0  0  0  0  0  0  0  0  0
    3.4292    0.0425    0.0000 C   0  0  0  0  0  0  0  0  0  0  0  0
    3.2297    1.5292    0.0000 N   0  0  0  0  0  0  0  0  0  0  0  0
    4.4175    2.4453    0.0000 N   0  0  0  0  0  0  0  0  0  0  0  0
    5.8047    1.8747    0.0000 C   0  0  0  0  0  0  0  0  0  0  0  0
    6.9925    2.7907    0.0000 O   0  0  0  0  0  0  0  0  0  0  0  0
    6.0042    0.3880    0.0000 C   0  0  0  0  0  0  0  0  0  0  0  0
    4.8164   -0.5281    0.0000 C   0  0  0  0  0  0  0  0  0  0  0  0
    5.0158   -2.0148    0.0000 N   0  0  0  0  0  0  0  0  0  0  0  0
    6.4031   -2.5854    0.0000 C   0  0  0  0  0  0  0  0  0  0  0  0
    7.5908   -1.6693    0.0000 C   0  0  0  0  0  0  0  0  0  0  0  0
    7.3914   -0.1826    0.0000 C   0  0  0  0  0  0  0  0  0  0  0  0
    0.6547    1.1838    0.0000 C   0  0  0  0  0  0  0  0  0  0  0  0
   -0.7325    1.7544    0.0000 C   0  0  0  0  0  0  0  0  0  0  0  0
   -1.9203    0.8383    0.0000 C   0  0  0  0  0  0  0  0  0  0  0  0
   -3.3075    1.4089    0.0000 F   0  0  0  0  0  0  0  0  0  0  0  0
   -5.4836   -1.9099    0.0000 C   0  0  0  0  0  0  0  0  0  0  0  0
   -6.8709   -1.3392    0.0000 C   0  0  0  0  0  0  0  0  0  0  0  0
  1  2  2  0
  2  3  1  0
  3  4  1  0
  4  5  1  0
  5  6  1  0
  6  7  1  0
  7  8  2  0
  7  9  1  0
  9 10  2  0
 10 11  1  0
 11 12  1  0
 12 13  1  0
 13 14  2  0
 14 15  1  0
 15 16  1  0
 16 17  2  0
 16 18  1  0
 18 19  2  0
 19 20  1  0
 20 21  1  0
 21 22  1  0
 22 23  1  0
 11 24  2  0
 24 25  1  0
 25 26  2  0
 26 27  1  0
  6 28  1  0
 28 29  1  0
 29  3  1  0
 26  9  1  0
 19 13  1  0
 23 18  1  0
M  END
$$$$

     RDKit          2D

 26 29  0  0  0  0  0  0  0  0999 V2000
   -3.4832    3.4141    0.0000 C   0  0  0  0  0  0  0  0  0  0  0  0
   -3.9013    1.9735    0.0000 C   0  0  0  0  0  0  0  0  0  0  0  0
   -2.8629    0.8911    0.0000 C   0  0  0  0  0  0  0  0  0  0  0  0
   -3.2810   -0.5494    0.0000 N   0  0  0  0  0  0  0  0  0  0  0  0
   -2.2426   -1.6318    0.0000 C   0  0  0  0  0  0  0  0  0  0  0  0
   -2.6607   -3.0724    0.0000 C   0  0  0  0  0  0  0  0  0  0  0  0
   -1.6223   -4.1548    0.0000 C   0  0  0  0  0  0  0  0  0  0  0  0
   -0.1656   -3.7966    0.0000 C   0  0  0  0  0  0  0  0  0  0  0  0
    0.2525   -2.3561    0.0000 C   0  0  0  0  0  0  0  0  0  0  0  0
    1.7091   -1.9980    0.0000 C   0  0  0  0  0  0  0  0  0  0  0  0
    2.1273   -0.5574    0.0000 C   0  0  0  0  0  0  0  0  0  0  0  0
    1.0888    0.5250    0.0000 N   0  0  0  0  0  0  0  0  0  0  0  0
    1.5070    1.9655    0.0000 N   0  0  0  0  0  0  0  0  0  0  0  0
    2.9636    2.3236    0.0000 C   0  0  0  0  0  0  0  0  0  0  0  0
    3.3818    3.7642    0.0000 O   0  0  0  0  0  0  0  0  0  0  0  0
    4.0021    1.2412    0.0000 C   0  0  0  0  0  0  0  0  0  0  0  0
    3.5839   -0.1993    0.0000 C   0  0  0  0  0  0  0  0  0  0  0  0
    4.6224   -1.2817    0.0000 C   0  0  0  0  0  0  0  0  0  0  0  0
    6.0790   -0.9236    0.0000 C   0  0  0  0  0  0  0  0  0  0  0  0
    6.4972    0.5169    0.0000 C   0  0  0  0  0  0  0  0  0  0  0  0
    5.4587    1.5993    0.0000 C   0  0  0  0  0  0  0  0  0  0  0  0
   -0.7859   -1.2737    0.0000 C   0  0  0  0  0  0  0  0  0  0  0  0
   -4.7376   -0.9076    0.0000 C   0  0  0  0  0  0  0  0  0  0  0  0
   -5.7761    0.1749    0.0000 C   0  0  0  0  0  0  0  0  0  0  0  0
   -5.3579    1.6154    0.0000 C   0  0  0  0  0  0  0  0  0  0  0  0
   -6.3964    2.6978    0.0000 O   0  0  0  0  0  0  0  0  0  0  0  0
  1  2  1  0
  2  3  1  0
  3  4  1  0
  4  5  1  0
  5  6  2  0
  6  7  1  0
  7  8  2  0
  8  9  1  0
  9 10  1  0
 10 11  1  0
 11 12  2  0
 12 13  1  0
 13 14  1  0
 14 15  2  0
 14 16  1  0
 16 17  2  0
 17 18  1  0
 18 19  1  0
 19 20  1  0
 20 21  1  0
  9 22  2  0
  4 23  1  0
 23 24  1  0
 24 25  1  0
 25 26  2  0
 25  2  1  0
 22  5  1  0
 17 11  1  0
 21 16  1  0
M  END
$$$$

     RDKit          2D

 29 32  0  0  0  0  0  0  0  0999 V2000
   -7.6214    3.6095    0.0000 C   0  0  0  0  0  0  0  0  0  0  0  0
   -7.5314    2.1122    0.0000 O   0  0  0  0  0  0  0  0  0  0  0  0
   -6.1897    1.4415    0.0000 C   0  0  0  0  0  0  0  0  0  0  0  0
   -4.9380    2.2681    0.0000 C   0  0  0  0  0  0  0  0  0  0  0  0
   -3.5963    1.5974    0.0000 C   0  0  0  0  0  0  0  0  0  0  0  0
   -3.5063    0.1001    0.0000 C   0  0  0  0  0  0  0  0  0  0  0  0
   -2.1646   -0.5706    0.0000 N   0  0  0  0  0  0  0  0  0  0  0  0
   -2.0746   -2.0679    0.0000 C   0  0  0  0  0  0  0  0  0  0  0  0
   -3.3263   -2.8945    0.0000 O   0  0  0  0  0  0  0  0  0  0  0  0
   -0.7329   -2.7386    0.0000 C   0  0  0  0  0  0  0  0  0  0  0  0
   -0.6428   -4.2359    0.0000 C   0  0  0  0  0  0  0  0  0  0  0  0
    0.6989   -4.9066    0.0000 C   0  0  0  0  0  0  0  0  0  0  0  0
    1.9506   -4.0799    0.0000 C   0  0  0  0  0  0  0  0  0  0  0  0
    1.8605   -2.5827    0.0000 C   0  0  0  0  0  0  0  0  0  0  0  0
    3.1122   -1.7560    0.0000 C   0  0  0  0  0  0  0  0  0  0  0  0
    3.0222   -0.2587    0.0000 C   0  0  0  0  0  0  0  0  0  0  0  0
    1.6805    0.4119    0.0000 N   0  0  0  0  0  0  0  0  0  0  0  0
    1.5905    1.9092    0.0000 N   0  0  0  0  0  0  0  0  0  0  0  0
    2.8422    2.7358    0.0000 C   0  0  0  0  0  0  0  0  0  0  0  0
    2.7521    4.2331    0.0000 O   0  0  0  0  0  0  0  0  0  0  0  0
    4.1839    2.0652    0.0000 C   0  0  0  0  0  0  0  0  0  0  0  0
    4.2739    0.5679    0.0000 C   0  0  0  0  0  0  0  0  0  0  0  0
    5.6156   -0.1028    0.0000 C   0  0  0  0  0  0  0  0  0  0  0  0
    6.8673    0.7238    0.0000 C   0  0  0  0  0  0  0  0  0  0  0  0
    6.7773    2.2211    0.0000 C   0  0  0  0  0  0  0  0  0  0  0  0
    5.4356    2.8918    0.0000 C   0  0  0  0  0  0  0  0  0  0  0  0
    0.5188   -1.9120    0.0000 C   0  0  0  0  0  0  0  0  0  0  0  0
   -4.7580   -0.7265    0.0000 C   0  0  0  0  0  0  0  0  0  0  0  0
   -6.0997   -0.0558    0.0000 C   0  0  0  0  0  0  0  0  0  0  0  0
  1  2  1  0
  2  3  1  0
  3  4  2  0
  4  5  1  0
  5  6  2  0
  6  7  1  0
  7  8  1  0
  8  9  2  0
  8 10  1  0
 10 11  2  0
 11 12  1  0
 12 13  2  0
 13 14  1  0
 14 15  1  0
 15 16  1  0
 16 17  2  0
 17 18  1  0
 18 19  1  0
 19 20  2  0
 19 21  1  0
 21 22  2  0
 22 23  1  0
 23 24  1  0
 24 25  1  0
 25 26  1  0
 14 27  2  0
  6 28  1  0
 28 29  2  0
 29  3  1  0
 27 10  1  0
 22 16  1  0
 26 21  1  0
M  END
$$$$

     RDKit          2D

 30 33  0  0  0  0  0  0  0  0999 V2000
   -7.8953    2.4013    0.0000 C   0  0  0  0  0  0  0  0  0  0  0  0
   -7.9982    0.9048    0.0000 C   0  0  0  0  0  0  0  0  0  0  0  0
   -6.7537    0.0675    0.0000 N   0  0  0  0  0  0  0  0  0  0  0  0
   -7.1149   -1.3884    0.0000 C   0  0  0  0  0  0  0  0  0  0  0  0
   -6.4558   -2.7358    0.0000 C   0  0  0  0  0  0  0  0  0  0  0  0
   -5.0848   -3.3444    0.0000 N   0  0  0  0  0  0  0  0  0  0  0  0
   -3.6434   -2.9293    0.0000 C   0  0  0  0  0  0  0  0  0  0  0  0
   -2.8060   -1.6847    0.0000 C   0  0  0  0  0  0  0  0  0  0  0  0
   -2.9645   -0.1931    0.0000 N   0  0  0  0  0  0  0  0  0  0  0  0
   -1.6171    0.4660    0.0000 C   0  0  0  0  0  0  0  0  0  0  0  0
   -0.3726   -0.3714    0.0000 C   0  0  0  0  0  0  0  0  0  0  0  0
    0.9749    0.2877    0.0000 C   0  0  0  0  0  0  0  0  0  0  0  0
    2.2194   -0.5496    0.0000 C   0  0  0  0  0  0  0  0  0  0  0  0
    3.5668    0.1095    0.0000 C   0  0  0  0  0  0  0  0  0  0  0  0
    3.6697    1.6059    0.0000 N   0  0  0  0  0  0  0  0  0  0  0  0
    5.0172    2.2650    0.0000 N   0  0  0  0  0  0  0  0  0  0  0  0
    6.2617    1.4277    0.0000 C   0  0  0  0  0  0  0  0  0  0  0  0
    7.6091    2.0868    0.0000 O   0  0  0  0  0  0  0  0  0  0  0  0
    6.1588   -0.0688    0.0000 C   0  0  0  0  0  0  0  0  0  0  0  0
    4.8113   -0.7279    0.0000 C   0  0  0  0  0  0  0  0  0  0  0  0
    4.7084   -2.2244    0.0000 N   0  0  0  0  0  0  0  0  0  0  0  0
    5.9529   -3.0617    0.0000 C   0  0  0  0  0  0  0  0  0  0  0  0
    7.3004   -2.4026    0.0000 C   0  0  0  0  0  0  0  0  0  0  0  0
    7.4033   -0.9061    0.0000 C   0  0  0  0  0  0  0  0  0  0  0  0
    1.0778    1.7842    0.0000 C   0  0  0  0  0  0  0  0  0  0  0  0
   -0.1667    2.6215    0.0000 C   0  0  0  0  0  0  0  0  0  0  0  0
   -1.5142    1.9624    0.0000 C   0  0  0  0  0  0  0  0  0  0  0  0
   -2.7587    2.7998    0.0000 F   0  0  0  0  0  0  0  0  0  0  0  0
   -4.0447    0.8476    0.0000 C   0  0  0  0  0  0  0  0  0  0  0  0
   -5.5412    0.9505    0.0000 C   0  0  0  0  0  0  0  0  0  0  0  0
  1  2  1  0
  2  3  1  0
  3  4  1  0
  4  5  1  0
  5  6  1  0
  6  7  1  0
  7  8  1  0
  8  9  1  0
  9 10  1  0
 10 11  2  0
 11 12  1  0
 12 13  1  0
 13 14  1  0
 14 15  2  0
 15 16  1  0
 16 17  1  0
 17 18  2  0
 17 19  1  0
 19 20  2  0
 20 21  1  0
 21 22  1  0
 22 23  1  0
 23 24  1  0
 12 25  2  0
 25 26  1  0
 26 27  2  0
 27 28  1  0
  9 29  1  0
 29 30  1  0
 30  3  1  0
 27 10  1  0
 20 14  1  0
 24 19  1  0
M  END
$$$$

     RDKit          2D

 31 34  0  0  0  0  0  0  0  0999 V2000
   -2.4566    5.4584    0.0000 C   0  0  0  0  0  0  0  0  0  0  0  0
   -2.2595    3.9714    0.0000 N   0  0  0  0  0  0  0  0  0  0  0  0
   -0.8732    3.3986    0.0000 C   0  0  0  0  0  0  0  0  0  0  0  0
   -3.4488    3.0572    0.0000 C   0  0  0  0  0  0  0  0  0  0  0  0
   -4.8351    3.6300    0.0000 O   0  0  0  0  0  0  0  0  0  0  0  0
   -3.2516    1.5702    0.0000 N   0  0  0  0  0  0  0  0  0  0  0  0
   -1.8653    0.9974    0.0000 C   0  0  0  0  0  0  0  0  0  0  0  0
   -1.6682   -0.4896    0.0000 C   0  0  0  0  0  0  0  0  0  0  0  0
   -2.8574   -1.4038    0.0000 N   0  0  0  0  0  0  0  0  0  0  0  0
   -2.6603   -2.8908    0.0000 C   0  0  0  0  0  0  0  0  0  0  0  0
   -3.8495   -3.8050    0.0000 O   0  0  0  0  0  0  0  0  0  0  0  0
   -1.2740   -3.4636    0.0000 C   0  0  0  0  0  0  0  0  0  0  0  0
   -1.0769   -4.9506    0.0000 C   0  0  0  0  0  0  0  0  0  0  0  0
    0.3094   -5.5234    0.0000 C   0  0  0  0  0  0  0  0  0  0  0  0
    1.4987   -4.6092    0.0000 C   0  0  0  0  0  0  0  0  0  0  0  0
    1.3015   -3.1222    0.0000 C   0  0  0  0  0  0  0  0  0  0  0  0
    2.4908   -2.2080    0.0000 C   0  0  0  0  0  0  0  0  0  0  0  0
    2.2937   -0.7210    0.0000 C   0  0  0  0  0  0  0  0  0  0  0  0
    0.9073   -0.1482    0.0000 N   0  0  0  0  0  0  0  0  0  0  0  0
    0.7102    1.3388    0.0000 N   0  0  0  0  0  0  0  0  0  0  0  0
    1.8994    2.2530    0.0000 C   0  0  0  0  0  0  0  0  0  0  0  0
    1.7023    3.7400    0.0000 O   0  0  0  0  0  0  0  0  0  0  0  0
    3.2858    1.6802    0.0000 C   0  0  0  0  0  0  0  0  0  0  0  0
    3.4829    0.1932    0.0000 C   0  0  0  0  0  0  0  0  0  0  0  0
    4.8692   -0.3796    0.0000 C   0  0  0  0  0  0  0  0  0  0  0  0
    6.0584    0.5346    0.0000 C   0  0  0  0  0  0  0  0  0  0  0  0
    5.8613    2.0216    0.0000 C   0  0  0  0  0  0  0  0  0  0  0  0
    4.4750    2.5944    0.0000 C   0  0  0  0  0  0  0  0  0  0  0  0
   -0.0848   -2.5494    0.0000 C   0  0  0  0  0  0  0  0  0  0  0  0
   -4.2438   -0.8310    0.0000 C   0  0  0  0  0  0  0  0  0  0  0  0
   -4.4409    0.6560    0.0000 C   0  0  0  0  0  0  0  0  0  0  0  0
  1  2  1  0
  2  3  1  0
  2  4  1  0
  4  5  2  0
  4  6  1  0
  6  7  1  0
  7  8  1  0
  8  9  1  0
  9 10  1  0
 10 11  2  0
 10 12  1  0
 12 13  2  0
 13 14  1  0
 14 15  2  0
 15 16  1  0
 16 17  1  0
 17 18  1  0
 18 19  2  0
 19 20  1  0
 20 21  1  0
 21 22  2  0
 21 23  1  0
 23 24  2  0
 24 25  1  0
 25 26  1  0
 26 27  1  0
 27 28  1  0
 16 29  2  0
  9 30  1  0
 30 31  1  0
 31  6  1  0
 29 12  1  0
 24 18  1  0
 28 23  1  0
M  END
$$$$

     RDKit          2D

 26 29  0  0  0  0  0  0  0  0999 V2000
   -4.5948    2.5219    0.0000 C   0  0  0  0  0  0  0  0  0  0  0  0
   -4.7162    1.0268    0.0000 N   0  0  0  0  0  0  0  0  0  0  0  0
   -3.4821    0.1742    0.0000 C   0  0  0  0  0  0  0  0  0  0  0  0
   -3.6034   -1.3209    0.0000 C   0  0  0  0  0  0  0  0  0  0  0  0
   -2.3693   -2.1735    0.0000 C   0  0  0  0  0  0  0  0  0  0  0  0
   -1.0139   -1.5311    0.0000 C   0  0  0  0  0  0  0  0  0  0  0  0
   -0.8925   -0.0360    0.0000 C   0  0  0  0  0  0  0  0  0  0  0  0
    0.4629    0.6065    0.0000 C   0  0  0  0  0  0  0  0  0  0  0  0
    1.6970   -0.2462    0.0000 C   0  0  0  0  0  0  0  0  0  0  0  0
    3.0525    0.3963    0.0000 C   0  0  0  0  0  0  0  0  0  0  0  0
    3.1738    1.8914    0.0000 N   0  0  0  0  0  0  0  0  0  0  0  0
    4.5293    2.5338    0.0000 N   0  0  0  0  0  0  0  0  0  0  0  0
    5.7634    1.6812    0.0000 C   0  0  0  0  0  0  0  0  0  0  0  0
    7.1189    2.3236    0.0000 O   0  0  0  0  0  0  0  0  0  0  0  0
    5.6421    0.1861    0.0000 C   0  0  0  0  0  0  0  0  0  0  0  0
    4.2866   -0.4564    0.0000 C   0  0  0  0  0  0  0  0  0  0  0  0
    4.1653   -1.9514    0.0000 C   0  0  0  0  0  0  0  0  0  0  0  0
    5.3994   -2.8041    0.0000 C   0  0  0  0  0  0  0  0  0  0  0  0
    6.7548   -2.1616    0.0000 C   0  0  0  0  0  0  0  0  0  0  0  0
    6.8762   -0.6665    0.0000 C   0  0  0  0  0  0  0  0  0  0  0  0
   -2.1266    0.8166    0.0000 C   0  0  0  0  0  0  0  0  0  0  0  0
   -6.0716    0.3844    0.0000 C   0  0  0  0  0  0  0  0  0  0  0  0
   -6.3486   -1.0898    0.0000 C   0  0  0  0  0  0  0  0  0  0  0  0
   -7.8362   -1.2820    0.0000 C   0  0  0  0  0  0  0  0  0  0  0  0
   -8.4787    0.0735    0.0000 C   0  0  0  0  0  0  0  0  0  0  0  0
   -7.3881    1.1033    0.0000 C   0  0  0  0  0  0  0  0  0  0  0  0
  1  2  1  0
  2  3  1  0
  3  4  2  0
  4  5  1  0
  5  6  2  0
  6  7  1  0
  7  8  1  0
  8  9  1  0
  9 10  1  0
 10 11  2  0
 11 12  1  0
 12 13  1  0
 13 14  2  0
 13 15  1  0
 15 16  2  0
 16 17  1  0
 17 18  1  0
 18 19  1  0
 19 20  1  0
  7 21  2  0
  2 22  1  0
 22 23  1  0
 23 24  1  0
 24 25  1  0
 25 26  1  0
 21  3  1  0
 26 22  1  0
 16 10  1  0
 20 15  1  0
M  END
$$$$

     RDKit          2D

 19 21  0  0  0  0  0  0  0  0999 V2000
   -2.0248   -1.9443    0.0000 C   0  0  0  0  0  0  0  0  0  0  0  0
   -2.8437   -0.6875    0.0000 C   0  0  0  0  0  0  0  0  0  0  0  0
   -1.5082   -0.0045    0.0000 C   0  0  0  0  0  0  0  0  0  0  0  0
   -0.1706   -0.6834    0.0000 N   0  0  0  0  0  0  0  0  0  0  0  0
    0.8884    0.3789    0.0000 C   0  0  0  0  0  0  0  0  0  0  0  0
    2.3865    0.3027    0.0000 C   0  0  0  0  0  0  0  0  0  0  0  0
    3.0695   -1.0328    0.0000 C   0  0  0  0  0  0  0  0  0  0  0  0
    2.2545   -2.2921    0.0000 O   0  0  0  0  0  0  0  0  0  0  0  0
    4.5676   -1.1090    0.0000 N   0  0  0  0  0  0  0  0  0  0  0  0
    5.2506   -2.4445    0.0000 N   0  0  0  0  0  0  0  0  0  0  0  0
    3.2015    1.5619    0.0000 C   0  0  0  0  0  0  0  0  0  0  0  0
    2.5185    2.8974    0.0000 C   0  0  0  0  0  0  0  0  0  0  0  0
    1.0204    2.9736    0.0000 C   0  0  0  0  0  0  0  0  0  0  0  0
    0.2054    1.7143    0.0000 C   0  0  0  0  0  0  0  0  0  0  0  0
   -1.2758    1.4774    0.0000 N   0  0  0  0  0  0  0  0  0  0  0  0
   -4.0079   -1.6333    0.0000 C   0  0  0  0  0  0  0  0  0  0  0  0
   -5.2672   -0.8182    0.0000 C   0  0  0  0  0  0  0  0  0  0  0  0
   -4.8812    0.6313    0.0000 C   0  0  0  0  0  0  0  0  0  0  0  0
   -3.3833    0.7121    0.0000 C   0  0  0  0  0  0  0  0  0  0  0  0
  1  2  1  0
  2  3  1  0
  3  4  2  0
  4  5  1  0
  5  6  2  0
  6  7  1  0
  7  8  2  0
  7  9  1  0
  9 10  1  0
  6 11  1  0
 11 12  2  0
 12 13  1  0
 13 14  2  0
 14 15  1  0
  2 16  1  0
 16 17  1  0
 17 18  1  0
 18 19  1  0
 19  2  1  0
 15  3  1  0
 14  5  1  0
M  END
$$$$

     RDKit          2D

 19 21  0  0  0  0  0  0  0  0999 V2000
    3.5375   -2.7947    0.0000 O   0  0  0  0  0  0  0  0  0  0  0  0
    2.4191   -1.7952    0.0000 C   0  0  0  0  0  0  0  0  0  0  0  0
    0.9942   -2.2640    0.0000 N   0  0  0  0  0  0  0  0  0  0  0  0
   -0.1242   -1.2645    0.0000 N   0  0  0  0  0  0  0  0  0  0  0  0
    0.1822    0.2039    0.0000 C   0  0  0  0  0  0  0  0  0  0  0  0
   -0.9362    1.2035    0.0000 C   0  0  0  0  0  0  0  0  0  0  0  0
   -2.3610    0.7347    0.0000 C   0  0  0  0  0  0  0  0  0  0  0  0
   -3.4795    1.7342    0.0000 N   0  0  0  0  0  0  0  0  0  0  0  0
   -4.9043    1.2654    0.0000 C   0  0  0  0  0  0  0  0  0  0  0  0
   -5.2108   -0.2030    0.0000 C   0  0  0  0  0  0  0  0  0  0  0  0
   -4.0923   -1.2025    0.0000 C   0  0  0  0  0  0  0  0  0  0  0  0
   -2.6675   -0.7337    0.0000 C   0  0  0  0  0  0  0  0  0  0  0  0
   -1.5490   -1.7333    0.0000 Br  0  0  0  0  0  0  0  0  0  0  0  0
    1.6071    0.6727    0.0000 C   0  0  0  0  0  0  0  0  0  0  0  0
    2.7255   -0.3268    0.0000 C   0  0  0  0  0  0  0  0  0  0  0  0
    4.1504    0.1420    0.0000 C   0  0  0  0  0  0  0  0  0  0  0  0
    4.4568    1.6104    0.0000 C   0  0  0  0  0  0  0  0  0  0  0  0
    3.3384    2.6099    0.0000 C   0  0  0  0  0  0  0  0  0  0  0  0
    1.9135    2.1411    0.0000 C   0  0  0  0  0  0  0  0  0  0  0  0
  1  2  2  0
  2  3  1  0
  3  4  1  0
  4  5  2  0
  5  6  1  0
  6  7  1  0
  7  8  2  0
  8  9  1  0
  9 10  2  0
 10 11  1  0
 11 12  2  0
 12 13  1  0
  5 14  1  0
 14 15  2  0
 15 16  1  0
 16 17  1  0
 17 18  1  0
 18 19  1  0
 15  2  1  0
 12  7  1  0
 19 14  1  0
M  END
$$$$

     RDKit          2D

 27 30  0  0  0  0  0  0  0  0999 V2000
   -7.5115    2.0718    0.0000 C   0  0  0  0  0  0  0  0  0  0  0  0
   -6.7549    0.7766    0.0000 N   0  0  0  0  0  0  0  0  0  0  0  0
   -7.3579   -0.5968    0.0000 C   0  0  0  0  0  0  0  0  0  0  0  0
   -6.2381   -1.5948    0.0000 C   0  0  0  0  0  0  0  0  0  0  0  0
   -4.9429   -0.8382    0.0000 N   0  0  0  0  0  0  0  0  0  0  0  0
   -3.5695   -1.4412    0.0000 C   0  0  0  0  0  0  0  0  0  0  0  0
   -3.4050   -2.9322    0.0000 O   0  0  0  0  0  0  0  0  0  0  0  0
   -2.3605   -0.5534    0.0000 C   0  0  0  0  0  0  0  0  0  0  0  0
   -0.9871   -1.1564    0.0000 C   0  0  0  0  0  0  0  0  0  0  0  0
    0.2219   -0.2685    0.0000 C   0  0  0  0  0  0  0  0  0  0  0  0
    1.5954   -0.8716    0.0000 C   0  0  0  0  0  0  0  0  0  0  0  0
    2.8043    0.0163    0.0000 C   0  0  0  0  0  0  0  0  0  0  0  0
    2.6399    1.5072    0.0000 N   0  0  0  0  0  0  0  0  0  0  0  0
    3.8489    2.3951    0.0000 N   0  0  0  0  0  0  0  0  0  0  0  0
    5.2223    1.7920    0.0000 C   0  0  0  0  0  0  0  0  0  0  0  0
    6.4313    2.6799    0.0000 O   0  0  0  0  0  0  0  0  0  0  0  0
    5.3868    0.3011    0.0000 C   0  0  0  0  0  0  0  0  0  0  0  0
    4.1778   -0.5868    0.0000 C   0  0  0  0  0  0  0  0  0  0  0  0
    4.3422   -2.0778    0.0000 N   0  0  0  0  0  0  0  0  0  0  0  0
    5.7156   -2.6808    0.0000 C   0  0  0  0  0  0  0  0  0  0  0  0
    6.9246   -1.7930    0.0000 C   0  0  0  0  0  0  0  0  0  0  0  0
    6.7602   -0.3020    0.0000 C   0  0  0  0  0  0  0  0  0  0  0  0
    0.0575    1.2224    0.0000 C   0  0  0  0  0  0  0  0  0  0  0  0
   -1.3159    1.8255    0.0000 C   0  0  0  0  0  0  0  0  0  0  0  0
   -2.5249    0.9376    0.0000 C   0  0  0  0  0  0  0  0  0  0  0  0
   -3.8983    1.5407    0.0000 F   0  0  0  0  0  0  0  0  0  0  0  0
   -5.2623    0.6274    0.0000 C   0  0  0  0  0  0  0  0  0  0  0  0
  1  2  1  0
  2  3  1  0
  3  4  1  0
  4  5  1  0
  5  6  1  0
  6  7  2  0
  6  8  1  0
  8  9  2  0
  9 10  1  0
 10 11  1  0
 11 12  1  0
 12 13  2  0
 13 14  1  0
 14 15  1  0
 15 16  2  0
 15 17  1  0
 17 18  2  0
 18 19  1  0
 19 20  1  0
 20 21  1  0
 21 22  1  0
 10 23  2  0
 23 24  1  0
 24 25  2  0
 25 26  1  0
  5 27  1  0
 27  2  1  0
 25  8  1  0
 18 12  1  0
 22 17  1  0
M  END
$$$$

     RDKit          2D

 21 23  0  0  0  0  0  0  0  0999 V2000
    2.7968    2.6243    0.0000 O   0  0  0  0  0  0  0  0  0  0  0  0
    2.5997    1.1373    0.0000 C   0  0  0  0  0  0  0  0  0  0  0  0
    1.2133    0.5645    0.0000 N   0  0  0  0  0  0  0  0  0  0  0  0
    0.0241    1.4786    0.0000 N   0  0  0  0  0  0  0  0  0  0  0  0
   -1.3622    0.9058    0.0000 C   0  0  0  0  0  0  0  0  0  0  0  0
   -1.4476   -0.5917    0.0000 C   0  0  0  0  0  0  0  0  0  0  0  0
   -2.6717   -1.4587    0.0000 C   0  0  0  0  0  0  0  0  0  0  0  0
   -4.1127   -1.0421    0.0000 C   0  0  0  0  0  0  0  0  0  0  0  0
   -4.6856    0.3442    0.0000 C   0  0  0  0  0  0  0  0  0  0  0  0
   -3.9588    1.6564    0.0000 C   0  0  0  0  0  0  0  0  0  0  0  0
   -3.9602    0.7930    0.0000 C   0  0  0  0  0  0  0  0  0  0  0  0
   -3.9744   -0.1735    0.0000 C   0  0  0  0  0  0  0  0  0  0  0  0
   -3.2821   -0.8481    0.0000 C   0  0  0  0  0  0  0  0  0  0  0  0
   -4.5673   -3.1496    0.0000 F   0  0  0  0  0  0  0  0  0  0  0  0
   -2.4798    1.9063    0.0000 C   0  0  0  0  0  0  0  0  0  0  0  0
    3.7889    0.2231    0.0000 C   0  0  0  0  0  0  0  0  0  0  0  0
    3.5918   -1.2639    0.0000 C   0  0  0  0  0  0  0  0  0  0  0  0
    4.7810   -2.1781    0.0000 C   0  0  0  0  0  0  0  0  0  0  0  0
    6.1673   -1.6053    0.0000 C   0  0  0  0  0  0  0  0  0  0  0  0
    6.3644   -0.1183    0.0000 C   0  0  0  0  0  0  0  0  0  0  0  0
    5.1752    0.7959    0.0000 C   0  0  0  0  0  0  0  0  0  0  0  0
  1  2  2  0
  2  3  1  0
  3  4  1  0
  4  5  2  3
  5  6  1  0
  6  7  2  0
  7  8  1  0
  8  9  2  0
  9 10  1  0
 10 11  2  0
 11 12  1  0
 12 13  2  0
 13 14  1  0
 10 15  1  0
  2 16  1  0
 16 17  1  0
 17 18  1  0
 18 19  1  0
 19 20  1  0
 20 21  1  0
 15  5  1  0
 21 16  1  0
 13  7  1  0
M  END
$$$$

     RDKit          2D

 33 37  0  0  0  0  0  0  0  0999 V2000
   -1.3015   -3.2547    0.0000 O   0  0  0  0  0  0  0  0  0  0  0  0
   -1.5636   -1.7778    0.0000 C   0  0  0  0  0  0  0  0  0  0  0  0
   -0.4156   -0.8124    0.0000 C   0  0  0  0  0  0  0  0  0  0  0  0
    0.9945   -1.3239    0.0000 C   0  0  0  0  0  0  0  0  0  0  0  0
    2.1426   -0.3584    0.0000 C   0  0  0  0  0  0  0  0  0  0  0  0
    3.5527   -0.8699    0.0000 C   0  0  0  0  0  0  0  0  0  0  0  0
    4.7007    0.0955    0.0000 C   0  0  0  0  0  0  0  0  0  0  0  0
    4.4386    1.5724    0.0000 N   0  0  0  0  0  0  0  0  0  0  0  0
    5.5866    2.5379    0.0000 N   0  0  0  0  0  0  0  0  0  0  0  0
    6.9967    2.0264    0.0000 C   0  0  0  0  0  0  0  0  0  0  0  0
    8.1447    2.9918    0.0000 O   0  0  0  0  0  0  0  0  0  0  0  0
    7.2588    0.5495    0.0000 C   0  0  0  0  0  0  0  0  0  0  0  0
    6.1108   -0.4160    0.0000 C   0  0  0  0  0  0  0  0  0  0  0  0
    6.3728   -1.8929    0.0000 C   0  0  0  0  0  0  0  0  0  0  0  0
    7.7829   -2.4044    0.0000 C   0  0  0  0  0  0  0  0  0  0  0  0
    8.9310   -1.4390    0.0000 C   0  0  0  0  0  0  0  0  0  0  0  0
    8.6689    0.0380    0.0000 C   0  0  0  0  0  0  0  0  0  0  0  0
    1.8805    1.1185    0.0000 C   0  0  0  0  0  0  0  0  0  0  0  0
    0.4704    1.6300    0.0000 C   0  0  0  0  0  0  0  0  0  0  0  0
   -0.6776    0.6646    0.0000 C   0  0  0  0  0  0  0  0  0  0  0  0
   -2.0877    1.1760    0.0000 F   0  0  0  0  0  0  0  0  0  0  0  0
   -2.9737   -1.2663    0.0000 N   0  0  0  0  0  0  0  0  0  0  0  0
   -3.2358    0.2106    0.0000 C   0  0  0  0  0  0  0  0  0  0  0  0
   -4.6459    0.7221    0.0000 C   0  0  0  0  0  0  0  0  0  0  0  0
   -5.7939   -0.2433    0.0000 N   0  0  0  0  0  0  0  0  0  0  0  0
   -7.2040    0.2682    0.0000 C   0  0  0  0  0  0  0  0  0  0  0  0
   -7.4660    1.7451    0.0000 C   0  0  0  0  0  0  0  0  0  0  0  0
   -8.8761    2.2566    0.0000 C   0  0  0  0  0  0  0  0  0  0  0  0
  -10.0242    1.2911    0.0000 N   0  0  0  0  0  0  0  0  0  0  0  0
   -9.7621   -0.1858    0.0000 C   0  0  0  0  0  0  0  0  0  0  0  0
   -8.3520   -0.6973    0.0000 N   0  0  0  0  0  0  0  0  0  0  0  0
   -5.5318   -1.7203    0.0000 C   0  0  0  0  0  0  0  0  0  0  0  0
   -4.1217   -2.2318    0.0000 C   0  0  0  0  0  0  0  0  0  0  0  0
  1  2  2  0
  2  3  1  0
  3  4  2  0
  4  5  1  0
  5  6  1  0
  6  7  1  0
  7  8  2  0
  8  9  1  0
  9 10  1  0
 10 11  2  0
 10 12  1  0
 12 13  2  0
 13 14  1  0
 14 15  1  0
 15 16  1  0
 16 17  1  0
  5 18  2  0
 18 19  1  0
 19 20  2  0
 20 21  1  0
  2 22  1  0
 22 23  1  0
 23 24  1  0
 24 25  1  0
 25 26  1  0
 26 27  2  0
 27 28  1  0
 28 29  2  0
 29 30  1  0
 30 31  2  0
 25 32  1  0
 32 33  1  0
 20  3  1  0
 33 22  1  0
 13  7  1  0
 31 26  1  0
 17 12  1  0
M  END
$$$$

     RDKit          2D

 25 28  0  0  0  0  0  0  0  0999 V2000
   -5.4213   -0.1179    0.0000 O   0  0  0  0  0  0  0  0  0  0  0  0
   -3.9282    0.0259    0.0000 C   0  0  0  0  0  0  0  0  0  0  0  0
   -3.0571   -1.1952    0.0000 C   0  0  0  0  0  0  0  0  0  0  0  0
   -3.6790   -2.5602    0.0000 C   0  0  0  0  0  0  0  0  0  0  0  0
   -2.8079   -3.7813    0.0000 C   0  0  0  0  0  0  0  0  0  0  0  0
   -1.3148   -3.6374    0.0000 C   0  0  0  0  0  0  0  0  0  0  0  0
   -0.6929   -2.2725    0.0000 C   0  0  0  0  0  0  0  0  0  0  0  0
    0.8002   -2.1286    0.0000 C   0  0  0  0  0  0  0  0  0  0  0  0
    1.4222   -0.7636    0.0000 C   0  0  0  0  0  0  0  0  0  0  0  0
    0.5511    0.4575    0.0000 N   0  0  0  0  0  0  0  0  0  0  0  0
    1.1730    1.8225    0.0000 N   0  0  0  0  0  0  0  0  0  0  0  0
    2.6661    1.9663    0.0000 C   0  0  0  0  0  0  0  0  0  0  0  0
    3.2881    3.3313    0.0000 O   0  0  0  0  0  0  0  0  0  0  0  0
    3.5372    0.7452    0.0000 C   0  0  0  0  0  0  0  0  0  0  0  0
    2.9153   -0.6198    0.0000 C   0  0  0  0  0  0  0  0  0  0  0  0
    3.7864   -1.8409    0.0000 C   0  0  0  0  0  0  0  0  0  0  0  0
    5.2795   -1.6971    0.0000 C   0  0  0  0  0  0  0  0  0  0  0  0
    5.9014   -0.3321    0.0000 C   0  0  0  0  0  0  0  0  0  0  0  0
    5.0303    0.8890    0.0000 C   0  0  0  0  0  0  0  0  0  0  0  0
   -1.5640   -1.0513    0.0000 C   0  0  0  0  0  0  0  0  0  0  0  0
   -3.3062    1.3909    0.0000 N   0  0  0  0  0  0  0  0  0  0  0  0
   -4.0449    2.6964    0.0000 C   0  0  0  0  0  0  0  0  0  0  0  0
   -3.0316    3.8024    0.0000 C   0  0  0  0  0  0  0  0  0  0  0  0
   -1.6666    3.1804    0.0000 C   0  0  0  0  0  0  0  0  0  0  0  0
   -1.8364    1.6900    0.0000 C   0  0  0  0  0  0  0  0  0  0  0  0
  1  2  2  0
  2  3  1  0
  3  4  2  0
  4  5  1  0
  5  6  2  0
  6  7  1  0
  7  8  1  0
  8  9  1  0
  9 10  2  0
 10 11  1  0
 11 12  1  0
 12 13  2  0
 12 14  1  0
 14 15  2  0
 15 16  1  0
 16 17  1  0
 17 18  1  0
 18 19  1  0
  7 20  2  0
  2 21  1  0
 21 22  1  0
 22 23  1  0
 23 24  1  0
 24 25  1  0
 20  3  1  0
 25 21  1  0
 15  9  1  0
 19 14  1  0
M  END
$$$$

     RDKit          2D

 36 40  0  0  0  0  0  0  0  0999 V2000
   -7.5715   -2.1401    0.0000 O   0  0  0  0  0  0  0  0  0  0  0  0
   -6.5485   -1.0432    0.0000 C   0  0  0  0  0  0  0  0  0  0  0  0
   -6.9869    0.3913    0.0000 C   0  0  0  0  0  0  0  0  0  0  0  0
   -5.9639    1.4883    0.0000 C   0  0  0  0  0  0  0  0  0  0  0  0
   -6.4024    2.9228    0.0000 C   0  0  0  0  0  0  0  0  0  0  0  0
   -7.8639    3.2603    0.0000 C   0  0  0  0  0  0  0  0  0  0  0  0
   -8.8870    2.1633    0.0000 C   0  0  0  0  0  0  0  0  0  0  0  0
  -10.3485    2.5008    0.0000 F   0  0  0  0  0  0  0  0  0  0  0  0
   -8.4485    0.7288    0.0000 C   0  0  0  0  0  0  0  0  0  0  0  0
   -5.0869   -1.3807    0.0000 N   0  0  0  0  0  0  0  0  0  0  0  0
   -4.6484   -2.8151    0.0000 C   0  0  0  0  0  0  0  0  0  0  0  0
   -3.1869   -3.1526    0.0000 C   0  0  0  0  0  0  0  0  0  0  0  0
   -2.1638   -2.0557    0.0000 N   0  0  0  0  0  0  0  0  0  0  0  0
   -0.7023   -2.3932    0.0000 C   0  0  0  0  0  0  0  0  0  0  0  0
   -0.2638   -3.8276    0.0000 O   0  0  0  0  0  0  0  0  0  0  0  0
    0.3207   -1.2962    0.0000 C   0  0  0  0  0  0  0  0  0  0  0  0
    1.7823   -1.6337    0.0000 C   0  0  0  0  0  0  0  0  0  0  0  0
    2.8053   -0.5367    0.0000 C   0  0  0  0  0  0  0  0  0  0  0  0
    4.2669   -0.8742    0.0000 C   0  0  0  0  0  0  0  0  0  0  0  0
    5.2899    0.2228    0.0000 C   0  0  0  0  0  0  0  0  0  0  0  0
    4.8514    1.6572    0.0000 N   0  0  0  0  0  0  0  0  0  0  0  0
    5.8745    2.7542    0.0000 N   0  0  0  0  0  0  0  0  0  0  0  0
    7.3360    2.4167    0.0000 C   0  0  0  0  0  0  0  0  0  0  0  0
    8.3591    3.5137    0.0000 O   0  0  0  0  0  0  0  0  0  0  0  0
    7.7745    0.9822    0.0000 C   0  0  0  0  0  0  0  0  0  0  0  0
    6.7515   -0.1147    0.0000 C   0  0  0  0  0  0  0  0  0  0  0  0
    7.1899   -1.5492    0.0000 N   0  0  0  0  0  0  0  0  0  0  0  0
    8.6515   -1.8867    0.0000 C   0  0  0  0  0  0  0  0  0  0  0  0
    9.6745   -0.7898    0.0000 C   0  0  0  0  0  0  0  0  0  0  0  0
    9.2361    0.6447    0.0000 C   0  0  0  0  0  0  0  0  0  0  0  0
    2.3669    0.8978    0.0000 C   0  0  0  0  0  0  0  0  0  0  0  0
    0.9053    1.2353    0.0000 C   0  0  0  0  0  0  0  0  0  0  0  0
   -0.1177    0.1383    0.0000 C   0  0  0  0  0  0  0  0  0  0  0  0
   -1.5793    0.4758    0.0000 F   0  0  0  0  0  0  0  0  0  0  0  0
   -2.6023   -0.6212    0.0000 C   0  0  0  0  0  0  0  0  0  0  0  0
   -4.0639   -0.2837    0.0000 C   0  0  0  0  0  0  0  0  0  0  0  0
  1  2  2  0
  2  3  1  0
  3  4  2  0
  4  5  1  0
  5  6  2  0
  6  7  1  0
  7  8  1  0
  7  9  2  0
  2 10  1  0
 10 11  1  0
 11 12  1  0
 12 13  1  0
 13 14  1  0
 14 15  2  0
 14 16  1  0
 16 17  2  0
 17 18  1  0
 18 19  1  0
 19 20  1  0
 20 21  2  0
 21 22  1  0
 22 23  1  0
 23 24  2  0
 23 25  1  0
 25 26  2  0
 26 27  1  0
 27 28  1  0
 28 29  1  0
 29 30  1  0
 18 31  2  0
 31 32  1  0
 32 33  2  0
 33 34  1  0
 13 35  1  0
 35 36  1  0
  9  3  1  0
 36 10  1  0
 33 16  1  0
 26 20  1  0
 30 25  1  0
M  END
$$$$

     RDKit          2D

 35 39  0  0  0  0  0  0  0  0999 V2000
   -7.9167   -1.8704    0.0000 O   0  0  0  0  0  0  0  0  0  0  0  0
   -6.8664   -0.7995    0.0000 C   0  0  0  0  0  0  0  0  0  0  0  0
   -7.2687    0.6456    0.0000 C   0  0  0  0  0  0  0  0  0  0  0  0
   -6.2184    1.7165    0.0000 C   0  0  0  0  0  0  0  0  0  0  0  0
   -6.6207    3.1615    0.0000 C   0  0  0  0  0  0  0  0  0  0  0  0
   -8.0733    3.5356    0.0000 C   0  0  0  0  0  0  0  0  0  0  0  0
   -9.1236    2.4647    0.0000 C   0  0  0  0  0  0  0  0  0  0  0  0
   -8.7213    1.0197    0.0000 C   0  0  0  0  0  0  0  0  0  0  0  0
   -5.4138   -1.1736    0.0000 N   0  0  0  0  0  0  0  0  0  0  0  0
   -5.0115   -2.6186    0.0000 C   0  0  0  0  0  0  0  0  0  0  0  0
   -3.5589   -2.9927    0.0000 C   0  0  0  0  0  0  0  0  0  0  0  0
   -2.5086   -1.9218    0.0000 N   0  0  0  0  0  0  0  0  0  0  0  0
   -1.0560   -2.2959    0.0000 C   0  0  0  0  0  0  0  0  0  0  0  0
   -0.6537   -3.7410    0.0000 O   0  0  0  0  0  0  0  0  0  0  0  0
   -0.0057   -1.2250    0.0000 C   0  0  0  0  0  0  0  0  0  0  0  0
    1.4469   -1.5991    0.0000 C   0  0  0  0  0  0  0  0  0  0  0  0
    2.4972   -0.5282    0.0000 C   0  0  0  0  0  0  0  0  0  0  0  0
    3.9498   -0.9023    0.0000 C   0  0  0  0  0  0  0  0  0  0  0  0
    5.0001    0.1687    0.0000 C   0  0  0  0  0  0  0  0  0  0  0  0
    4.5978    1.6137    0.0000 N   0  0  0  0  0  0  0  0  0  0  0  0
    5.6480    2.6846    0.0000 N   0  0  0  0  0  0  0  0  0  0  0  0
    7.1006    2.3105    0.0000 C   0  0  0  0  0  0  0  0  0  0  0  0
    8.1509    3.3815    0.0000 O   0  0  0  0  0  0  0  0  0  0  0  0
    7.5030    0.8655    0.0000 C   0  0  0  0  0  0  0  0  0  0  0  0
    6.4527   -0.2054    0.0000 C   0  0  0  0  0  0  0  0  0  0  0  0
    6.8550   -1.6505    0.0000 C   0  0  0  0  0  0  0  0  0  0  0  0
    8.3076   -2.0246    0.0000 C   0  0  0  0  0  0  0  0  0  0  0  0
    9.3579   -0.9537    0.0000 C   0  0  0  0  0  0  0  0  0  0  0  0
    8.9556    0.4914    0.0000 C   0  0  0  0  0  0  0  0  0  0  0  0
    2.0949    0.9169    0.0000 C   0  0  0  0  0  0  0  0  0  0  0  0
    0.6423    1.2910    0.0000 C   0  0  0  0  0  0  0  0  0  0  0  0
   -0.4080    0.2201    0.0000 C   0  0  0  0  0  0  0  0  0  0  0  0
   -1.8606    0.5942    0.0000 F   0  0  0  0  0  0  0  0  0  0  0  0
   -2.9109   -0.4768    0.0000 C   0  0  0  0  0  0  0  0  0  0  0  0
   -4.3635   -0.1027    0.0000 C   0  0  0  0  0  0  0  0  0  0  0  0
  1  2  2  0
  2  3  1  0
  3  4  2  0
  4  5  1  0
  5  6  2  0
  6  7  1  0
  7  8  2  0
  2  9  1  0
  9 10  1  0
 10 11  1  0
 11 12  1  0
 12 13  1  0
 13 14  2  0
 13 15  1  0
 15 16  2  0
 16 17  1  0
 17 18  1  0
 18 19  1  0
 19 20  2  0
 20 21  1  0
 21 22  1  0
 22 23  2  0
 22 24  1  0
 24 25  2  0
 25 26  1  0
 26 27  1  0
 27 28  1  0
 28 29  1  0
 17 30  2  0
 30 31  1  0
 31 32  2  0
 32 33  1  0
 12 34  1  0
 34 35  1  0
  8  3  1  0
 35  9  1  0
 32 15  1  0
 25 19  1  0
 29 24  1  0
M  END
$$$$

     RDKit          2D

 30 33  0  0  0  0  0  0  0  0999 V2000
   -5.4683    4.1128    0.0000 C   0  0  0  0  0  0  0  0  0  0  0  0
   -6.2284    2.8196    0.0000 O   0  0  0  0  0  0  0  0  0  0  0  0
   -5.4884    1.5148    0.0000 C   0  0  0  0  0  0  0  0  0  0  0  0
   -3.9885    1.5032    0.0000 C   0  0  0  0  0  0  0  0  0  0  0  0
   -3.2486    0.1984    0.0000 C   0  0  0  0  0  0  0  0  0  0  0  0
   -4.0086   -1.0948    0.0000 C   0  0  0  0  0  0  0  0  0  0  0  0
   -3.2687   -2.3996    0.0000 C   0  0  0  0  0  0  0  0  0  0  0  0
   -1.7687   -2.4112    0.0000 C   0  0  0  0  0  0  0  0  0  0  0  0
   -1.0087   -1.1181    0.0000 O   0  0  0  0  0  0  0  0  0  0  0  0
   -1.0288   -3.7161    0.0000 N   0  0  0  0  0  0  0  0  0  0  0  0
    0.4712   -3.7277    0.0000 C   0  0  0  0  0  0  0  0  0  0  0  0
    1.2111   -5.0325    0.0000 C   0  0  0  0  0  0  0  0  0  0  0  0
    2.7110   -5.0441    0.0000 C   0  0  0  0  0  0  0  0  0  0  0  0
    3.4711   -3.7509    0.0000 C   0  0  0  0  0  0  0  0  0  0  0  0
    2.7311   -2.4461    0.0000 C   0  0  0  0  0  0  0  0  0  0  0  0
    3.4912   -1.1529    0.0000 C   0  0  0  0  0  0  0  0  0  0  0  0
    2.7513    0.1519    0.0000 C   0  0  0  0  0  0  0  0  0  0  0  0
    1.2513    0.1635    0.0000 N   0  0  0  0  0  0  0  0  0  0  0  0
    0.5114    1.4683    0.0000 N   0  0  0  0  0  0  0  0  0  0  0  0
    1.2714    2.7615    0.0000 C   0  0  0  0  0  0  0  0  0  0  0  0
    0.5315    4.0663    0.0000 O   0  0  0  0  0  0  0  0  0  0  0  0
    2.7714    2.7499    0.0000 C   0  0  0  0  0  0  0  0  0  0  0  0
    3.5113    1.4451    0.0000 C   0  0  0  0  0  0  0  0  0  0  0  0
    5.0112    1.4335    0.0000 C   0  0  0  0  0  0  0  0  0  0  0  0
    5.7713    2.7267    0.0000 C   0  0  0  0  0  0  0  0  0  0  0  0
    5.0314    4.0315    0.0000 C   0  0  0  0  0  0  0  0  0  0  0  0
    3.5314    4.0431    0.0000 C   0  0  0  0  0  0  0  0  0  0  0  0
    1.2312   -2.4345    0.0000 C   0  0  0  0  0  0  0  0  0  0  0  0
   -5.5086   -1.0832    0.0000 C   0  0  0  0  0  0  0  0  0  0  0  0
   -6.2485    0.2216    0.0000 C   0  0  0  0  0  0  0  0  0  0  0  0
  1  2  1  0
  2  3  1  0
  3  4  2  0
  4  5  1  0
  5  6  2  0
  6  7  1  0
  7  8  1  0
  8  9  2  0
  8 10  1  0
 10 11  1  0
 11 12  2  0
 12 13  1  0
 13 14  2  0
 14 15  1  0
 15 16  1  0
 16 17  1  0
 17 18  2  0
 18 19  1  0
 19 20  1  0
 20 21  2  0
 20 22  1  0
 22 23  2  0
 23 24  1  0
 24 25  1  0
 25 26  1  0
 26 27  1  0
 15 28  2  0
  6 29  1  0
 29 30  2  0
 30  3  1  0
 28 11  1  0
 23 17  1  0
 27 22  1  0
M  END
$$$$

     RDKit          2D

 26 29  0  0  0  0  0  0  0  0999 V2000
   -4.0400    3.0828    0.0000 C   0  0  0  0  0  0  0  0  0  0  0  0
   -3.2852    1.7866    0.0000 C   0  0  0  0  0  0  0  0  0  0  0  0
   -4.0304    0.4848    0.0000 C   0  0  0  0  0  0  0  0  0  0  0  0
   -5.5304    0.4792    0.0000 O   0  0  0  0  0  0  0  0  0  0  0  0
   -3.2756   -0.8115    0.0000 C   0  0  0  0  0  0  0  0  0  0  0  0
   -4.0208   -2.1133    0.0000 C   0  0  0  0  0  0  0  0  0  0  0  0
   -3.2660   -3.4096    0.0000 C   0  0  0  0  0  0  0  0  0  0  0  0
   -1.7660   -3.4040    0.0000 C   0  0  0  0  0  0  0  0  0  0  0  0
   -1.0208   -2.1022    0.0000 C   0  0  0  0  0  0  0  0  0  0  0  0
    0.4792   -2.0967    0.0000 C   0  0  0  0  0  0  0  0  0  0  0  0
    1.2244   -0.7949    0.0000 C   0  0  0  0  0  0  0  0  0  0  0  0
    0.4696    0.5014    0.0000 N   0  0  0  0  0  0  0  0  0  0  0  0
    1.2148    1.8032    0.0000 N   0  0  0  0  0  0  0  0  0  0  0  0
    2.7148    1.8087    0.0000 C   0  0  0  0  0  0  0  0  0  0  0  0
    3.4600    3.1105    0.0000 O   0  0  0  0  0  0  0  0  0  0  0  0
    3.4696    0.5124    0.0000 C   0  0  0  0  0  0  0  0  0  0  0  0
    2.7244   -0.7894    0.0000 C   0  0  0  0  0  0  0  0  0  0  0  0
    3.4792   -2.0856    0.0000 C   0  0  0  0  0  0  0  0  0  0  0  0
    4.9791   -2.0801    0.0000 C   0  0  0  0  0  0  0  0  0  0  0  0
    5.7243   -0.7783    0.0000 C   0  0  0  0  0  0  0  0  0  0  0  0
    4.9696    0.5180    0.0000 C   0  0  0  0  0  0  0  0  0  0  0  0
   -1.7756   -0.8060    0.0000 C   0  0  0  0  0  0  0  0  0  0  0  0
   -1.7852    1.7921    0.0000 C   0  0  0  0  0  0  0  0  0  0  0  0
   -0.7206    0.7354    0.0000 N   0  0  0  0  0  0  0  0  0  0  0  0
    0.3361    1.7999    0.0000 C   0  0  0  0  0  0  0  0  0  0  0  0
   -0.7284    2.8567    0.0000 C   0  0  0  0  0  0  0  0  0  0  0  0
  1  2  1  0
  2  3  1  0
  3  4  2  0
  3  5  1  0
  5  6  2  0
  6  7  1  0
  7  8  2  0
  8  9  1  0
  9 10  1  0
 10 11  1  0
 11 12  2  0
 12 13  1  0
 13 14  1  0
 14 15  2  0
 14 16  1  0
 16 17  2  0
 17 18  1  0
 18 19  1  0
 19 20  1  0
 20 21  1  0
  9 22  2  0
  2 23  1  0
 23 24  2  0
 24 25  1  0
 25 26  1  0
 22  5  1  0
 26 23  1  0
 17 11  1  0
 21 16  1  0
M  END
$$$$

     RDKit          2D

 21 23  0  0  0  0  0  0  0  0999 V2000
   -7.8781   -1.1169    0.0000 C   0  0  0  0  0  0  0  0  0  0  0  0
   -6.6116   -0.3131    0.0000 C   0  0  0  0  0  0  0  0  0  0  0  0
   -5.2823   -1.0080    0.0000 N   0  0  0  0  0  0  0  0  0  0  0  0
   -4.0158   -0.2042    0.0000 C   0  0  0  0  0  0  0  0  0  0  0  0
   -4.0787    1.2945    0.0000 C   0  0  0  0  0  0  0  0  0  0  0  0
   -2.8122    2.0983    0.0000 C   0  0  0  0  0  0  0  0  0  0  0  0
   -1.4829    1.4034    0.0000 C   0  0  0  0  0  0  0  0  0  0  0  0
   -1.4200   -0.0953    0.0000 C   0  0  0  0  0  0  0  0  0  0  0  0
   -0.0907   -0.7902    0.0000 C   0  0  0  0  0  0  0  0  0  0  0  0
    1.1758    0.0136    0.0000 C   0  0  0  0  0  0  0  0  0  0  0  0
    1.1129    1.5123    0.0000 N   0  0  0  0  0  0  0  0  0  0  0  0
    2.3794    2.3161    0.0000 N   0  0  0  0  0  0  0  0  0  0  0  0
    3.7087    1.6212    0.0000 C   0  0  0  0  0  0  0  0  0  0  0  0
    4.9752    2.4250    0.0000 O   0  0  0  0  0  0  0  0  0  0  0  0
    3.7716    0.1225    0.0000 C   0  0  0  0  0  0  0  0  0  0  0  0
    2.5051   -0.6813    0.0000 C   0  0  0  0  0  0  0  0  0  0  0  0
    2.5680   -2.1800    0.0000 C   0  0  0  0  0  0  0  0  0  0  0  0
    3.8973   -2.8749    0.0000 C   0  0  0  0  0  0  0  0  0  0  0  0
    5.1638   -2.0711    0.0000 C   0  0  0  0  0  0  0  0  0  0  0  0
    5.1009   -0.5724    0.0000 C   0  0  0  0  0  0  0  0  0  0  0  0
   -2.6865   -0.8991    0.0000 C   0  0  0  0  0  0  0  0  0  0  0  0
  1  2  1  0
  2  3  1  0
  3  4  1  0
  4  5  2  0
  5  6  1  0
  6  7  2  0
  7  8  1  0
  8  9  1  0
  9 10  1  0
 10 11  2  0
 11 12  1  0
 12 13  1  0
 13 14  2  0
 13 15  1  0
 15 16  2  0
 16 17  1  0
 17 18  1  0
 18 19  1  0
 19 20  1  0
  8 21  2  0
 21  4  1  0
 16 10  1  0
 20 15  1  0
M  END
$$$$

     RDKit          2D

 35 39  0  0  0  0  0  0  0  0999 V2000
   -1.3271    3.8591    0.0000 O   0  0  0  0  0  0  0  0  0  0  0  0
   -2.0765    2.5597    0.0000 C   0  0  0  0  0  0  0  0  0  0  0  0
   -3.5724    2.6712    0.0000 C   0  0  0  0  0  0  0  0  0  0  0  0
   -4.5922    1.5711    0.0000 C   0  0  0  0  0  0  0  0  0  0  0  0
   -4.3680    0.0880    0.0000 C   0  0  0  0  0  0  0  0  0  0  0  0
   -5.6070   -0.7575    0.0000 C   0  0  0  0  0  0  0  0  0  0  0  0
   -6.9587   -0.1073    0.0000 C   0  0  0  0  0  0  0  0  0  0  0  0
   -8.1977   -0.9528    0.0000 C   0  0  0  0  0  0  0  0  0  0  0  0
   -9.5494   -0.3026    0.0000 C   0  0  0  0  0  0  0  0  0  0  0  0
  -10.7884   -1.1481    0.0000 C   0  0  0  0  0  0  0  0  0  0  0  0
  -10.6757   -2.6439    0.0000 O   0  0  0  0  0  0  0  0  0  0  0  0
   -9.3239   -3.2941    0.0000 C   0  0  0  0  0  0  0  0  0  0  0  0
   -8.0849   -2.4486    0.0000 C   0  0  0  0  0  0  0  0  0  0  0  0
   -3.0686   -0.6614    0.0000 C   0  0  0  0  0  0  0  0  0  0  0  0
   -1.6725   -0.1128    0.0000 C   0  0  0  0  0  0  0  0  0  0  0  0
   -1.2310    1.3207    0.0000 C   0  0  0  0  0  0  0  0  0  0  0  0
    0.2521    1.5449    0.0000 C   0  0  0  0  0  0  0  0  0  0  0  0
    1.1879    0.3726    0.0000 C   0  0  0  0  0  0  0  0  0  0  0  0
    2.6710    0.5968    0.0000 C   0  0  0  0  0  0  0  0  0  0  0  0
    3.6068   -0.5755    0.0000 C   0  0  0  0  0  0  0  0  0  0  0  0
    5.0899   -0.3513    0.0000 C   0  0  0  0  0  0  0  0  0  0  0  0
    5.6373    1.0453    0.0000 N   0  0  0  0  0  0  0  0  0  0  0  0
    7.1205    1.2695    0.0000 N   0  0  0  0  0  0  0  0  0  0  0  0
    8.0562    0.0971    0.0000 C   0  0  0  0  0  0  0  0  0  0  0  0
    9.5394    0.3214    0.0000 O   0  0  0  0  0  0  0  0  0  0  0  0
    7.5088   -1.2994    0.0000 C   0  0  0  0  0  0  0  0  0  0  0  0
    6.0257   -1.5236    0.0000 C   0  0  0  0  0  0  0  0  0  0  0  0
    5.4783   -2.9202    0.0000 N   0  0  0  0  0  0  0  0  0  0  0  0
    6.4140   -4.0925    0.0000 C   0  0  0  0  0  0  0  0  0  0  0  0
    7.8972   -3.8683    0.0000 C   0  0  0  0  0  0  0  0  0  0  0  0
    8.4446   -2.4718    0.0000 C   0  0  0  0  0  0  0  0  0  0  0  0
    3.2184    1.9934    0.0000 C   0  0  0  0  0  0  0  0  0  0  0  0
    2.2827    3.1657    0.0000 C   0  0  0  0  0  0  0  0  0  0  0  0
    0.7995    2.9415    0.0000 C   0  0  0  0  0  0  0  0  0  0  0  0
   -0.1362    4.1138    0.0000 F   0  0  0  0  0  0  0  0  0  0  0  0
  1  2  2  0
  2  3  1  0
  3  4  1  0
  4  5  1  0
  5  6  1  0
  6  7  1  0
  7  8  1  0
  8  9  1  0
  9 10  1  0
 10 11  1  0
 11 12  1  0
 12 13  1  0
  5 14  2  0
 14 15  1  0
 15 16  2  0
 16 17  1  0
 17 18  2  0
 18 19  1  0
 19 20  1  0
 20 21  1  0
 21 22  2  0
 22 23  1  0
 23 24  1  0
 24 25  2  0
 24 26  1  0
 26 27  2  0
 27 28  1  0
 28 29  1  0
 29 30  1  0
 30 31  1  0
 19 32  2  0
 32 33  1  0
 33 34  2  0
 34 35  1  0
 16  2  1  0
 34 17  1  0
 13  8  1  0
 27 21  1  0
 31 26  1  0
M  END
$$$$

     RDKit          2D

 34 38  0  0  0  0  0  0  0  0999 V2000
   -0.2933    6.1338    0.0000 O   0  0  0  0  0  0  0  0  0  0  0  0
    0.0822    4.6815    0.0000 C   0  0  0  0  0  0  0  0  0  0  0  0
   -0.8721    3.5242    0.0000 C   0  0  0  0  0  0  0  0  0  0  0  0
   -0.0663    2.2590    0.0000 N   0  0  0  0  0  0  0  0  0  0  0  0
    0.3091    0.8067    0.0000 C   0  0  0  0  0  0  0  0  0  0  0  0
    1.4665   -0.1475    0.0000 C   0  0  0  0  0  0  0  0  0  0  0  0
    2.9637   -0.2393    0.0000 N   0  0  0  0  0  0  0  0  0  0  0  0
    3.3391   -1.6915    0.0000 C   0  0  0  0  0  0  0  0  0  0  0  0
    4.7845   -2.0925    0.0000 O   0  0  0  0  0  0  0  0  0  0  0  0
    2.2691   -2.7428    0.0000 C   0  0  0  0  0  0  0  0  0  0  0  0
    0.8237   -2.3418    0.0000 C   0  0  0  0  0  0  0  0  0  0  0  0
   -0.2463   -3.3930    0.0000 C   0  0  0  0  0  0  0  0  0  0  0  0
   -1.6917   -2.9920    0.0000 C   0  0  0  0  0  0  0  0  0  0  0  0
   -2.0671   -1.5397    0.0000 C   0  0  0  0  0  0  0  0  0  0  0  0
   -0.9971   -0.4885    0.0000 N   0  0  0  0  0  0  0  0  0  0  0  0
   -1.3725    0.9638    0.0000 N   0  0  0  0  0  0  0  0  0  0  0  0
   -2.8179    1.3648    0.0000 C   0  0  0  0  0  0  0  0  0  0  0  0
   -3.1934    2.8171    0.0000 O   0  0  0  0  0  0  0  0  0  0  0  0
   -3.8879    0.3135    0.0000 C   0  0  0  0  0  0  0  0  0  0  0  0
   -3.5125   -1.1387    0.0000 C   0  0  0  0  0  0  0  0  0  0  0  0
   -4.5825   -2.1900    0.0000 N   0  0  0  0  0  0  0  0  0  0  0  0
   -6.0279   -1.7890    0.0000 C   0  0  0  0  0  0  0  0  0  0  0  0
   -6.4033   -0.3367    0.0000 C   0  0  0  0  0  0  0  0  0  0  0  0
   -5.3333    0.7146    0.0000 C   0  0  0  0  0  0  0  0  0  0  0  0
    0.1291   -4.8453    0.0000 C   0  0  0  0  0  0  0  0  0  0  0  0
    1.5745   -5.2463    0.0000 C   0  0  0  0  0  0  0  0  0  0  0  0
    2.6445   -4.1950    0.0000 C   0  0  0  0  0  0  0  0  0  0  0  0
    4.0899   -4.5960    0.0000 F   0  0  0  0  0  0  0  0  0  0  0  0
    4.2288    0.5666    0.0000 N   0  0  0  0  0  0  0  0  0  0  0  0
    4.7787    1.9621    0.0000 C   0  0  0  0  0  0  0  0  0  0  0  0
    4.4033    3.4144    0.0000 C   0  0  0  0  0  0  0  0  0  0  0  0
    3.2460    4.3686    0.0000 C   0  0  0  0  0  0  0  0  0  0  0  0
    1.7488    4.4604    0.0000 C   0  0  0  0  0  0  0  0  0  0  0  0
    0.4836    3.6545    0.0000 C   0  0  0  0  0  0  0  0  0  0  0  0
  1  2  2  0
  2  3  1  0
  3  4  1  0
  4  5  1  0
  5  6  1  0
  6  7  1  0
  7  8  1  0
  8  9  2  0
  8 10  1  0
 10 11  2  0
 11 12  1  0
 12 13  1  0
 13 14  1  0
 14 15  2  0
 15 16  1  0
 16 17  1  0
 17 18  2  0
 17 19  1  0
 19 20  2  0
 20 21  1  0
 21 22  1  0
 22 23  1  0
 23 24  1  0
 12 25  2  0
 25 26  1  0
 26 27  2  0
 27 28  1  0
  7 29  1  0
 29 30  1  0
 30 31  1  0
 31 32  1  0
 32 33  1  0
 33 34  1  0
 33  2  1  0
 34  4  1  0
 27 10  1  0
 20 14  1  0
 24 19  1  0
M  END
$$$$

     RDKit          2D

 27 30  0  0  0  0  0  0  0  0999 V2000
   -3.4884   -2.7690    0.0000 O   0  0  0  0  0  0  0  0  0  0  0  0
   -3.6120   -1.2741    0.0000 C   0  0  0  0  0  0  0  0  0  0  0  0
   -4.9684   -0.6337    0.0000 C   0  0  0  0  0  0  0  0  0  0  0  0
   -5.0920    0.8612    0.0000 N   0  0  0  0  0  0  0  0  0  0  0  0
   -6.4484    1.5017    0.0000 C   0  0  0  0  0  0  0  0  0  0  0  0
   -7.6812    0.6472    0.0000 C   0  0  0  0  0  0  0  0  0  0  0  0
   -7.5576   -0.8477    0.0000 C   0  0  0  0  0  0  0  0  0  0  0  0
   -6.2012   -1.4882    0.0000 C   0  0  0  0  0  0  0  0  0  0  0  0
   -2.3791   -0.4196    0.0000 C   0  0  0  0  0  0  0  0  0  0  0  0
   -1.0227   -1.0601    0.0000 C   0  0  0  0  0  0  0  0  0  0  0  0
    0.2101   -0.2056    0.0000 C   0  0  0  0  0  0  0  0  0  0  0  0
    1.5665   -0.8460    0.0000 C   0  0  0  0  0  0  0  0  0  0  0  0
    2.7993    0.0084    0.0000 C   0  0  0  0  0  0  0  0  0  0  0  0
    2.6758    1.5033    0.0000 N   0  0  0  0  0  0  0  0  0  0  0  0
    3.9086    2.3578    0.0000 N   0  0  0  0  0  0  0  0  0  0  0  0
    5.2650    1.7174    0.0000 C   0  0  0  0  0  0  0  0  0  0  0  0
    6.4979    2.5718    0.0000 O   0  0  0  0  0  0  0  0  0  0  0  0
    5.3886    0.2225    0.0000 C   0  0  0  0  0  0  0  0  0  0  0  0
    4.1558   -0.6320    0.0000 C   0  0  0  0  0  0  0  0  0  0  0  0
    4.2793   -2.1269    0.0000 N   0  0  0  0  0  0  0  0  0  0  0  0
    5.6357   -2.7673    0.0000 C   0  0  0  0  0  0  0  0  0  0  0  0
    6.8686   -1.9129    0.0000 C   0  0  0  0  0  0  0  0  0  0  0  0
    6.7450   -0.4180    0.0000 C   0  0  0  0  0  0  0  0  0  0  0  0
    0.0865    1.2893    0.0000 C   0  0  0  0  0  0  0  0  0  0  0  0
   -1.2699    1.9297    0.0000 C   0  0  0  0  0  0  0  0  0  0  0  0
   -2.5027    1.0753    0.0000 C   0  0  0  0  0  0  0  0  0  0  0  0
   -3.8591    1.7157    0.0000 F   0  0  0  0  0  0  0  0  0  0  0  0
  1  2  2  0
  2  3  1  0
  3  4  2  0
  4  5  1  0
  5  6  1  0
  6  7  1  0
  7  8  1  0
  2  9  1  0
  9 10  2  0
 10 11  1  0
 11 12  1  0
 12 13  1  0
 13 14  2  0
 14 15  1  0
 15 16  1  0
 16 17  2  0
 16 18  1  0
 18 19  2  0
 19 20  1  0
 20 21  1  0
 21 22  1  0
 22 23  1  0
 11 24  2  0
 24 25  1  0
 25 26  2  0
 26 27  1  0
  8  3  1  0
 26  9  1  0
 19 13  1  0
 23 18  1  0
M  END
$$$$

     RDKit          2D

 22 24  0  0  0  0  0  0  0  0999 V2000
   -2.9766    2.8071    0.0000 C   0  0  0  0  0  0  0  0  0  0  0  0
   -3.9014    1.6261    0.0000 N   0  0  0  0  0  0  0  0  0  0  0  0
   -5.3866    1.8365    0.0000 C   0  0  0  0  0  0  0  0  0  0  0  0
   -3.3410    0.2347    0.0000 C   0  0  0  0  0  0  0  0  0  0  0  0
   -1.8558    0.0243    0.0000 C   0  0  0  0  0  0  0  0  0  0  0  0
   -1.2954   -1.3670    0.0000 C   0  0  0  0  0  0  0  0  0  0  0  0
    0.1897   -1.5774    0.0000 C   0  0  0  0  0  0  0  0  0  0  0  0
    1.1145   -0.3964    0.0000 C   0  0  0  0  0  0  0  0  0  0  0  0
    0.5541    0.9950    0.0000 N   0  0  0  0  0  0  0  0  0  0  0  0
    1.4789    2.1760    0.0000 N   0  0  0  0  0  0  0  0  0  0  0  0
    2.9641    1.9656    0.0000 C   0  0  0  0  0  0  0  0  0  0  0  0
    3.8889    3.1466    0.0000 O   0  0  0  0  0  0  0  0  0  0  0  0
    3.5245    0.5742    0.0000 C   0  0  0  0  0  0  0  0  0  0  0  0
    2.5997   -0.6068    0.0000 C   0  0  0  0  0  0  0  0  0  0  0  0
    3.1601   -1.9982    0.0000 N   0  0  0  0  0  0  0  0  0  0  0  0
    4.6452   -2.2086    0.0000 C   0  0  0  0  0  0  0  0  0  0  0  0
    5.5700   -1.0276    0.0000 C   0  0  0  0  0  0  0  0  0  0  0  0
    5.0096    0.3638    0.0000 C   0  0  0  0  0  0  0  0  0  0  0  0
   -2.2202   -2.5481    0.0000 C   0  0  0  0  0  0  0  0  0  0  0  0
   -3.7054   -2.3377    0.0000 C   0  0  0  0  0  0  0  0  0  0  0  0
   -4.2658   -0.9463    0.0000 C   0  0  0  0  0  0  0  0  0  0  0  0
   -5.7510   -0.7359    0.0000 F   0  0  0  0  0  0  0  0  0  0  0  0
  1  2  1  0
  2  3  1  0
  2  4  1  0
  4  5  2  0
  5  6  1  0
  6  7  1  0
  7  8  1  0
  8  9  2  0
  9 10  1  0
 10 11  1  0
 11 12  2  0
 11 13  1  0
 13 14  2  0
 14 15  1  0
 15 16  1  0
 16 17  1  0
 17 18  1  0
  6 19  2  0
 19 20  1  0
 20 21  2  0
 21 22  1  0
 21  4  1  0
 14  8  1  0
 18 13  1  0
M  END
$$$$

     RDKit          2D

 36 40  0  0  0  0  0  0  0  0999 V2000
   -7.3030   -1.7497    0.0000 O   0  0  0  0  0  0  0  0  0  0  0  0
   -6.2495   -0.6820    0.0000 C   0  0  0  0  0  0  0  0  0  0  0  0
   -6.6473    0.7643    0.0000 C   0  0  0  0  0  0  0  0  0  0  0  0
   -8.0987    1.1428    0.0000 C   0  0  0  0  0  0  0  0  0  0  0  0
   -8.4966    2.5891    0.0000 C   0  0  0  0  0  0  0  0  0  0  0  0
   -9.9480    2.9677    0.0000 C   0  0  0  0  0  0  0  0  0  0  0  0
  -11.0016    1.9000    0.0000 C   0  0  0  0  0  0  0  0  0  0  0  0
  -10.6038    0.4537    0.0000 C   0  0  0  0  0  0  0  0  0  0  0  0
   -9.1523    0.0752    0.0000 C   0  0  0  0  0  0  0  0  0  0  0  0
   -4.7980   -1.0606    0.0000 N   0  0  0  0  0  0  0  0  0  0  0  0
   -4.4002   -2.5069    0.0000 C   0  0  0  0  0  0  0  0  0  0  0  0
   -2.9487   -2.8855    0.0000 C   0  0  0  0  0  0  0  0  0  0  0  0
   -1.8951   -1.8178    0.0000 N   0  0  0  0  0  0  0  0  0  0  0  0
   -0.4437   -2.1964    0.0000 C   0  0  0  0  0  0  0  0  0  0  0  0
   -0.0458   -3.6426    0.0000 O   0  0  0  0  0  0  0  0  0  0  0  0
    0.6099   -1.1287    0.0000 C   0  0  0  0  0  0  0  0  0  0  0  0
    2.0613   -1.5072    0.0000 C   0  0  0  0  0  0  0  0  0  0  0  0
    3.1149   -0.4396    0.0000 C   0  0  0  0  0  0  0  0  0  0  0  0
    4.5663   -0.8181    0.0000 C   0  0  0  0  0  0  0  0  0  0  0  0
    5.6199    0.2495    0.0000 C   0  0  0  0  0  0  0  0  0  0  0  0
    5.2221    1.6958    0.0000 N   0  0  0  0  0  0  0  0  0  0  0  0
    6.2757    2.7635    0.0000 N   0  0  0  0  0  0  0  0  0  0  0  0
    7.7271    2.3849    0.0000 C   0  0  0  0  0  0  0  0  0  0  0  0
    8.7807    3.4526    0.0000 O   0  0  0  0  0  0  0  0  0  0  0  0
    8.1249    0.9387    0.0000 C   0  0  0  0  0  0  0  0  0  0  0  0
    7.0714   -0.1290    0.0000 C   0  0  0  0  0  0  0  0  0  0  0  0
    7.4692   -1.5753    0.0000 N   0  0  0  0  0  0  0  0  0  0  0  0
    8.9207   -1.9539    0.0000 C   0  0  0  0  0  0  0  0  0  0  0  0
    9.9742   -0.8862    0.0000 C   0  0  0  0  0  0  0  0  0  0  0  0
    9.5764    0.5601    0.0000 C   0  0  0  0  0  0  0  0  0  0  0  0
    2.7170    1.0067    0.0000 C   0  0  0  0  0  0  0  0  0  0  0  0
    1.2656    1.3853    0.0000 C   0  0  0  0  0  0  0  0  0  0  0  0
    0.2120    0.3176    0.0000 C   0  0  0  0  0  0  0  0  0  0  0  0
   -1.2394    0.6962    0.0000 F   0  0  0  0  0  0  0  0  0  0  0  0
   -2.2930   -0.3715    0.0000 C   0  0  0  0  0  0  0  0  0  0  0  0
   -3.7444    0.0071    0.0000 C   0  0  0  0  0  0  0  0  0  0  0  0
  1  2  2  0
  2  3  1  0
  3  4  1  0
  4  5  2  0
  5  6  1  0
  6  7  2  0
  7  8  1  0
  8  9  2  0
  2 10  1  0
 10 11  1  0
 11 12  1  0
 12 13  1  0
 13 14  1  0
 14 15  2  0
 14 16  1  0
 16 17  2  0
 17 18  1  0
 18 19  1  0
 19 20  1  0
 20 21  2  0
 21 22  1  0
 22 23  1  0
 23 24  2  0
 23 25  1  0
 25 26  2  0
 26 27  1  0
 27 28  1  0
 28 29  1  0
 29 30  1  0
 18 31  2  0
 31 32  1  0
 32 33  2  0
 33 34  1  0
 13 35  1  0
 35 36  1  0
  9  4  1  0
 36 10  1  0
 33 16  1  0
 26 20  1  0
 30 25  1  0
M  END
$$$$

     RDKit          2D

 25 28  0  0  0  0  0  0  0  0999 V2000
   -6.0166    1.3798    0.0000 O   0  0  0  0  0  0  0  0  0  0  0  0
   -5.7067   -0.0878    0.0000 C   0  0  0  0  0  0  0  0  0  0  0  0
   -6.7119   -1.2012    0.0000 C   0  0  0  0  0  0  0  0  0  0  0  0
   -5.9636   -2.5012    0.0000 C   0  0  0  0  0  0  0  0  0  0  0  0
   -4.4960   -2.1913    0.0000 C   0  0  0  0  0  0  0  0  0  0  0  0
   -4.3372   -0.6997    0.0000 N   0  0  0  0  0  0  0  0  0  0  0  0
   -3.0372    0.0485    0.0000 C   0  0  0  0  0  0  0  0  0  0  0  0
   -1.7391   -0.7032    0.0000 C   0  0  0  0  0  0  0  0  0  0  0  0
   -0.4391    0.0451    0.0000 C   0  0  0  0  0  0  0  0  0  0  0  0
    0.8589   -0.7066    0.0000 C   0  0  0  0  0  0  0  0  0  0  0  0
    2.1590    0.0416    0.0000 C   0  0  0  0  0  0  0  0  0  0  0  0
    2.1610    1.5416    0.0000 N   0  0  0  0  0  0  0  0  0  0  0  0
    3.4610    2.2899    0.0000 N   0  0  0  0  0  0  0  0  0  0  0  0
    4.7590    1.5382    0.0000 C   0  0  0  0  0  0  0  0  0  0  0  0
    6.0591    2.2865    0.0000 O   0  0  0  0  0  0  0  0  0  0  0  0
    4.7570    0.0382    0.0000 C   0  0  0  0  0  0  0  0  0  0  0  0
    3.4570   -0.7101    0.0000 C   0  0  0  0  0  0  0  0  0  0  0  0
    3.4550   -2.2101    0.0000 C   0  0  0  0  0  0  0  0  0  0  0  0
    4.7531   -2.9618    0.0000 C   0  0  0  0  0  0  0  0  0  0  0  0
    6.0531   -2.2135    0.0000 C   0  0  0  0  0  0  0  0  0  0  0  0
    6.0551   -0.7135    0.0000 C   0  0  0  0  0  0  0  0  0  0  0  0
   -0.4371    1.5451    0.0000 C   0  0  0  0  0  0  0  0  0  0  0  0
   -1.7352    2.2968    0.0000 C   0  0  0  0  0  0  0  0  0  0  0  0
   -3.0352    1.5485    0.0000 C   0  0  0  0  0  0  0  0  0  0  0  0
   -4.3332    2.3003    0.0000 F   0  0  0  0  0  0  0  0  0  0  0  0
  1  2  2  0
  2  3  1  0
  3  4  1  0
  4  5  1  0
  5  6  1  0
  6  7  1  0
  7  8  2  0
  8  9  1  0
  9 10  1  0
 10 11  1  0
 11 12  2  0
 12 13  1  0
 13 14  1  0
 14 15  2  0
 14 16  1  0
 16 17  2  0
 17 18  1  0
 18 19  1  0
 19 20  1  0
 20 21  1  0
  9 22  2  0
 22 23  1  0
 23 24  2  0
 24 25  1  0
  6  2  1  0
 24  7  1  0
 17 11  1  0
 21 16  1  0
M  END
$$$$

     RDKit          2D

 28 31  0  0  0  0  0  0  0  0999 V2000
   -1.2834    0.6498    0.0000 O   0  0  0  0  0  0  0  0  0  0  0  0
   -2.6551    0.0428    0.0000 C   0  0  0  0  0  0  0  0  0  0  0  0
   -2.8154   -1.4486    0.0000 N   0  0  0  0  0  0  0  0  0  0  0  0
   -1.6039   -2.3331    0.0000 C   0  0  0  0  0  0  0  0  0  0  0  0
   -1.7641   -3.8245    0.0000 C   0  0  0  0  0  0  0  0  0  0  0  0
   -0.5527   -4.7090    0.0000 C   0  0  0  0  0  0  0  0  0  0  0  0
    0.8191   -4.1021    0.0000 C   0  0  0  0  0  0  0  0  0  0  0  0
    0.9793   -2.6106    0.0000 C   0  0  0  0  0  0  0  0  0  0  0  0
    2.3511   -2.0037    0.0000 C   0  0  0  0  0  0  0  0  0  0  0  0
    2.5113   -0.5123    0.0000 C   0  0  0  0  0  0  0  0  0  0  0  0
    1.2998    0.3722    0.0000 N   0  0  0  0  0  0  0  0  0  0  0  0
    1.4601    1.8636    0.0000 N   0  0  0  0  0  0  0  0  0  0  0  0
    2.8318    2.4705    0.0000 C   0  0  0  0  0  0  0  0  0  0  0  0
    2.9921    3.9619    0.0000 O   0  0  0  0  0  0  0  0  0  0  0  0
    4.0433    1.5860    0.0000 C   0  0  0  0  0  0  0  0  0  0  0  0
    3.8831    0.0946    0.0000 C   0  0  0  0  0  0  0  0  0  0  0  0
    5.0945   -0.7899    0.0000 C   0  0  0  0  0  0  0  0  0  0  0  0
    6.4663   -0.1830    0.0000 C   0  0  0  0  0  0  0  0  0  0  0  0
    6.6265    1.3084    0.0000 C   0  0  0  0  0  0  0  0  0  0  0  0
    5.4150    2.1929    0.0000 C   0  0  0  0  0  0  0  0  0  0  0  0
   -0.2321   -1.7261    0.0000 C   0  0  0  0  0  0  0  0  0  0  0  0
   -3.8666    0.9273    0.0000 C   0  0  0  0  0  0  0  0  0  0  0  0
   -3.7063    2.4188    0.0000 C   0  0  0  0  0  0  0  0  0  0  0  0
   -4.9178    3.3033    0.0000 C   0  0  0  0  0  0  0  0  0  0  0  0
   -6.2895    2.6963    0.0000 C   0  0  0  0  0  0  0  0  0  0  0  0
   -6.4498    1.2049    0.0000 C   0  0  0  0  0  0  0  0  0  0  0  0
   -5.2383    0.3204    0.0000 C   0  0  0  0  0  0  0  0  0  0  0  0
   -5.3986   -1.1710    0.0000 Br  0  0  0  0  0  0  0  0  0  0  0  0
  1  2  2  0
  2  3  1  0
  3  4  1  0
  4  5  2  0
  5  6  1  0
  6  7  2  0
  7  8  1  0
  8  9  1  0
  9 10  1  0
 10 11  2  0
 11 12  1  0
 12 13  1  0
 13 14  2  0
 13 15  1  0
 15 16  2  0
 16 17  1  0
 17 18  1  0
 18 19  1  0
 19 20  1  0
  8 21  2  0
  2 22  1  0
 22 23  2  0
 23 24  1  0
 24 25  2  0
 25 26  1  0
 26 27  2  0
 27 28  1  0
 21  4  1  0
 27 22  1  0
 16 10  1  0
 20 15  1  0
M  END
$$$$

     RDKit          2D

 23 25  0  0  0  0  0  0  0  0999 V2000
   -6.6695    0.6876    0.0000 N   0  0  0  0  0  0  0  0  0  0  0  0
   -5.7650   -0.5090    0.0000 C   0  0  0  0  0  0  0  0  0  0  0  0
   -6.3490   -1.8906    0.0000 O   0  0  0  0  0  0  0  0  0  0  0  0
   -4.2765   -0.3240    0.0000 N   0  0  0  0  0  0  0  0  0  0  0  0
   -3.4639   -1.5848    0.0000 C   0  0  0  0  0  0  0  0  0  0  0  0
   -1.9715   -1.7356    0.0000 C   0  0  0  0  0  0  0  0  0  0  0  0
   -0.9231   -0.6629    0.0000 C   0  0  0  0  0  0  0  0  0  0  0  0
    0.4983   -1.1420    0.0000 C   0  0  0  0  0  0  0  0  0  0  0  0
    1.6240   -0.1506    0.0000 C   0  0  0  0  0  0  0  0  0  0  0  0
    1.3282    1.3199    0.0000 N   0  0  0  0  0  0  0  0  0  0  0  0
    2.4539    2.3114    0.0000 N   0  0  0  0  0  0  0  0  0  0  0  0
    3.8753    1.8322    0.0000 C   0  0  0  0  0  0  0  0  0  0  0  0
    5.0009    2.8236    0.0000 O   0  0  0  0  0  0  0  0  0  0  0  0
    4.1710    0.3617    0.0000 C   0  0  0  0  0  0  0  0  0  0  0  0
    3.0454   -0.6297    0.0000 C   0  0  0  0  0  0  0  0  0  0  0  0
    3.3412   -2.1003    0.0000 N   0  0  0  0  0  0  0  0  0  0  0  0
    4.7626   -2.5794    0.0000 C   0  0  0  0  0  0  0  0  0  0  0  0
    5.8882   -1.5880    0.0000 C   0  0  0  0  0  0  0  0  0  0  0  0
    5.5925   -0.1175    0.0000 C   0  0  0  0  0  0  0  0  0  0  0  0
   -1.1081    0.8257    0.0000 C   0  0  0  0  0  0  0  0  0  0  0  0
   -2.3873    1.6091    0.0000 C   0  0  0  0  0  0  0  0  0  0  0  0
   -3.7973    1.0975    0.0000 C   0  0  0  0  0  0  0  0  0  0  0  0
   -4.8701    2.1459    0.0000 F   0  0  0  0  0  0  0  0  0  0  0  0
  1  2  1  0
  2  3  2  0
  2  4  1  0
  4  5  1  0
  5  6  2  0
  6  7  1  0
  7  8  1  0
  8  9  1  0
  9 10  2  0
 10 11  1  0
 11 12  1  0
 12 13  2  0
 12 14  1  0
 14 15  2  0
 15 16  1  0
 16 17  1  0
 17 18  1  0
 18 19  1  0
  7 20  2  0
 20 21  1  0
 21 22  2  0
 22 23  1  0
 22  4  1  0
 15  9  1  0
 19 14  1  0
M  END
$$$$

     RDKit          2D

 18 20  0  0  0  0  0  0  0  0999 V2000
   -1.9672   -1.8602    0.0000 C   0  0  0  0  0  0  0  0  0  0  0  0
   -2.6315   -0.5153    0.0000 C   0  0  0  0  0  0  0  0  0  0  0  0
   -1.2245    0.0048    0.0000 C   0  0  0  0  0  0  0  0  0  0  0  0
    0.0232   -0.8278    0.0000 N   0  0  0  0  0  0  0  0  0  0  0  0
    1.2006    0.1016    0.0000 C   0  0  0  0  0  0  0  0  0  0  0  0
    2.6791   -0.1515    0.0000 C   0  0  0  0  0  0  0  0  0  0  0  0
    3.1991   -1.5584    0.0000 C   0  0  0  0  0  0  0  0  0  0  0  0
    4.6776   -1.8115    0.0000 N   0  0  0  0  0  0  0  0  0  0  0  0
    2.2407   -2.7123    0.0000 O   0  0  0  0  0  0  0  0  0  0  0  0
    3.6375    1.0024    0.0000 C   0  0  0  0  0  0  0  0  0  0  0  0
    3.1174    2.4093    0.0000 C   0  0  0  0  0  0  0  0  0  0  0  0
    1.6389    2.6624    0.0000 C   0  0  0  0  0  0  0  0  0  0  0  0
    0.6805    1.5086    0.0000 C   0  0  0  0  0  0  0  0  0  0  0  0
   -0.8183    1.4487    0.0000 N   0  0  0  0  0  0  0  0  0  0  0  0
   -3.8996   -1.3165    0.0000 C   0  0  0  0  0  0  0  0  0  0  0  0
   -5.0535   -0.3581    0.0000 C   0  0  0  0  0  0  0  0  0  0  0  0
   -4.4985    1.0355    0.0000 N   0  0  0  0  0  0  0  0  0  0  0  0
   -3.0016    0.9383    0.0000 C   0  0  0  0  0  0  0  0  0  0  0  0
  1  2  1  0
  2  3  1  0
  3  4  2  0
  4  5  1  0
  5  6  2  0
  6  7  1  0
  7  8  1  0
  7  9  2  0
  6 10  1  0
 10 11  2  0
 11 12  1  0
 12 13  2  0
 13 14  1  0
  2 15  1  0
 15 16  1  0
 16 17  1  0
 17 18  1  0
 18  2  1  0
 14  3  1  0
 13  5  1  0
M  END
$$$$

     RDKit          2D

 18 20  0  0  0  0  0  0  0  0999 V2000
   -1.9368    2.3045    0.0000 C   0  0  0  0  0  0  0  0  0  0  0  0
   -1.1835    1.0074    0.0000 C   0  0  0  0  0  0  0  0  0  0  0  0
   -1.9302   -0.2935    0.0000 C   0  0  0  0  0  0  0  0  0  0  0  0
   -3.4302   -0.2973    0.0000 C   0  0  0  0  0  0  0  0  0  0  0  0
   -4.4935    0.7607    0.0000 C   0  0  0  0  0  0  0  0  0  0  0  0
   -5.5515   -0.3026    0.0000 C   0  0  0  0  0  0  0  0  0  0  0  0
   -4.4882   -1.3606    0.0000 C   0  0  0  0  0  0  0  0  0  0  0  0
    0.3165    1.0112    0.0000 C   0  0  0  0  0  0  0  0  0  0  0  0
    1.0632    2.3121    0.0000 N   0  0  0  0  0  0  0  0  0  0  0  0
    2.5632    2.3158    0.0000 N   0  0  0  0  0  0  0  0  0  0  0  0
    3.3165    1.0187    0.0000 C   0  0  0  0  0  0  0  0  0  0  0  0
    4.8165    1.0225    0.0000 O   0  0  0  0  0  0  0  0  0  0  0  0
    2.5698   -0.2822    0.0000 C   0  0  0  0  0  0  0  0  0  0  0  0
    1.0698   -0.2860    0.0000 C   0  0  0  0  0  0  0  0  0  0  0  0
    0.3230   -1.5869    0.0000 C   0  0  0  0  0  0  0  0  0  0  0  0
    1.0763   -2.8841    0.0000 C   0  0  0  0  0  0  0  0  0  0  0  0
    2.5763   -2.8803    0.0000 C   0  0  0  0  0  0  0  0  0  0  0  0
    3.3230   -1.5794    0.0000 N   0  0  0  0  0  0  0  0  0  0  0  0
  1  2  1  0
  2  3  1  0
  3  4  1  0
  4  5  1  0
  5  6  1  0
  6  7  1  0
  2  8  1  0
  8  9  2  0
  9 10  1  0
 10 11  1  0
 11 12  2  0
 11 13  1  0
 13 14  2  0
 14 15  1  0
 15 16  1  0
 16 17  1  0
 17 18  1  0
  7  4  1  0
 14  8  1  0
 18 13  1  0
M  END
$$$$

     RDKit          2D

 24 27  0  0  0  0  0  0  0  0999 V2000
   -4.5250    2.4689    0.0000 N   0  0  0  0  0  0  0  0  0  0  0  0
   -3.2457    1.6857    0.0000 C   0  0  0  0  0  0  0  0  0  0  0  0
   -1.9278    2.4021    0.0000 C   0  0  0  0  0  0  0  0  0  0  0  0
   -0.6485    1.6189    0.0000 C   0  0  0  0  0  0  0  0  0  0  0  0
   -0.6871    0.1194    0.0000 C   0  0  0  0  0  0  0  0  0  0  0  0
    0.5922   -0.6638    0.0000 C   0  0  0  0  0  0  0  0  0  0  0  0
    1.9101    0.0525    0.0000 C   0  0  0  0  0  0  0  0  0  0  0  0
    1.9487    1.5520    0.0000 N   0  0  0  0  0  0  0  0  0  0  0  0
    3.2666    2.2684    0.0000 N   0  0  0  0  0  0  0  0  0  0  0  0
    4.5459    1.4852    0.0000 C   0  0  0  0  0  0  0  0  0  0  0  0
    5.8638    2.2015    0.0000 O   0  0  0  0  0  0  0  0  0  0  0  0
    4.5073   -0.0143    0.0000 C   0  0  0  0  0  0  0  0  0  0  0  0
    3.1894   -0.7306    0.0000 C   0  0  0  0  0  0  0  0  0  0  0  0
    3.1508   -2.2301    0.0000 N   0  0  0  0  0  0  0  0  0  0  0  0
    4.4302   -3.0133    0.0000 C   0  0  0  0  0  0  0  0  0  0  0  0
    5.7481   -2.2970    0.0000 C   0  0  0  0  0  0  0  0  0  0  0  0
    5.7867   -0.7975    0.0000 C   0  0  0  0  0  0  0  0  0  0  0  0
   -2.0050   -0.5969    0.0000 C   0  0  0  0  0  0  0  0  0  0  0  0
   -3.2843    0.1862    0.0000 C   0  0  0  0  0  0  0  0  0  0  0  0
   -4.6022   -0.5301    0.0000 N   0  0  0  0  0  0  0  0  0  0  0  0
   -4.7973   -2.0174    0.0000 C   0  0  0  0  0  0  0  0  0  0  0  0
   -6.2721   -2.2914    0.0000 C   0  0  0  0  0  0  0  0  0  0  0  0
   -6.9884   -0.9735    0.0000 C   0  0  0  0  0  0  0  0  0  0  0  0
   -5.9564    0.1151    0.0000 C   0  0  0  0  0  0  0  0  0  0  0  0
  1  2  1  0
  2  3  2  0
  3  4  1  0
  4  5  2  0
  5  6  1  0
  6  7  1  0
  7  8  2  0
  8  9  1  0
  9 10  1  0
 10 11  2  0
 10 12  1  0
 12 13  2  0
 13 14  1  0
 14 15  1  0
 15 16  1  0
 16 17  1  0
  5 18  1  0
 18 19  2  0
 19 20  1  0
 20 21  1  0
 21 22  1  0
 22 23  1  0
 23 24  1  0
 19  2  1  0
 24 20  1  0
 13  7  1  0
 17 12  1  0
M  END
$$$$

     RDKit          2D

 30 33  0  0  0  0  0  0  0  0999 V2000
   -8.8980    2.4735    0.0000 C   0  0  0  0  0  0  0  0  0  0  0  0
   -8.2054    1.1430    0.0000 C   0  0  0  0  0  0  0  0  0  0  0  0
   -8.8747   -0.1994    0.0000 C   0  0  0  0  0  0  0  0  0  0  0  0
   -7.8049   -1.2508    0.0000 C   0  0  0  0  0  0  0  0  0  0  0  0
   -6.4744   -0.5582    0.0000 C   0  0  0  0  0  0  0  0  0  0  0  0
   -5.1320   -1.2276    0.0000 C   0  0  0  0  0  0  0  0  0  0  0  0
   -5.0404   -2.7248    0.0000 O   0  0  0  0  0  0  0  0  0  0  0  0
   -3.8811   -0.3997    0.0000 N   0  0  0  0  0  0  0  0  0  0  0  0
   -2.5387   -1.0690    0.0000 C   0  0  0  0  0  0  0  0  0  0  0  0
   -2.4472   -2.5662    0.0000 O   0  0  0  0  0  0  0  0  0  0  0  0
   -1.2879   -0.2412    0.0000 C   0  0  0  0  0  0  0  0  0  0  0  0
    0.0545   -0.9105    0.0000 C   0  0  0  0  0  0  0  0  0  0  0  0
    1.3053   -0.0826    0.0000 C   0  0  0  0  0  0  0  0  0  0  0  0
    2.6477   -0.7520    0.0000 C   0  0  0  0  0  0  0  0  0  0  0  0
    3.8986    0.0759    0.0000 C   0  0  0  0  0  0  0  0  0  0  0  0
    3.8071    1.5731    0.0000 N   0  0  0  0  0  0  0  0  0  0  0  0
    5.0579    2.4010    0.0000 N   0  0  0  0  0  0  0  0  0  0  0  0
    6.4003    1.7316    0.0000 C   0  0  0  0  0  0  0  0  0  0  0  0
    7.6511    2.5595    0.0000 O   0  0  0  0  0  0  0  0  0  0  0  0
    6.4918    0.2344    0.0000 C   0  0  0  0  0  0  0  0  0  0  0  0
    5.2410   -0.5934    0.0000 C   0  0  0  0  0  0  0  0  0  0  0  0
    5.3325   -2.0906    0.0000 C   0  0  0  0  0  0  0  0  0  0  0  0
    6.6749   -2.7600    0.0000 C   0  0  0  0  0  0  0  0  0  0  0  0
    7.9257   -1.9321    0.0000 C   0  0  0  0  0  0  0  0  0  0  0  0
    7.8342   -0.4349    0.0000 C   0  0  0  0  0  0  0  0  0  0  0  0
    1.2138    1.4146    0.0000 C   0  0  0  0  0  0  0  0  0  0  0  0
   -0.1286    2.0839    0.0000 C   0  0  0  0  0  0  0  0  0  0  0  0
   -1.3794    1.2560    0.0000 C   0  0  0  0  0  0  0  0  0  0  0  0
   -2.7218    1.9254    0.0000 F   0  0  0  0  0  0  0  0  0  0  0  0
   -6.7219    0.9212    0.0000 C   0  0  0  0  0  0  0  0  0  0  0  0
  1  2  1  0
  2  3  1  0
  3  4  1  0
  4  5  1  0
  5  6  1  0
  6  7  2  0
  6  8  1  0
  8  9  1  0
  9 10  2  0
  9 11  1  0
 11 12  2  0
 12 13  1  0
 13 14  1  0
 14 15  1  0
 15 16  2  0
 16 17  1  0
 17 18  1  0
 18 19  2  0
 18 20  1  0
 20 21  2  0
 21 22  1  0
 22 23  1  0
 23 24  1  0
 24 25  1  0
 13 26  2  0
 26 27  1  0
 27 28  2  0
 28 29  1  0
  5 30  1  0
 30  2  1  0
 28 11  1  0
 21 15  1  0
 25 20  1  0
M  END
$$$$

     RDKit          2D

 32 36  0  0  0  0  0  0  0  0999 V2000
   -1.6404   -3.1999    0.0000 O   0  0  0  0  0  0  0  0  0  0  0  0
   -1.8855   -1.7200    0.0000 C   0  0  0  0  0  0  0  0  0  0  0  0
   -0.7265   -0.7678    0.0000 C   0  0  0  0  0  0  0  0  0  0  0  0
    0.6776   -1.2954    0.0000 C   0  0  0  0  0  0  0  0  0  0  0  0
    1.8366   -0.3432    0.0000 C   0  0  0  0  0  0  0  0  0  0  0  0
    3.2408   -0.8708    0.0000 C   0  0  0  0  0  0  0  0  0  0  0  0
    4.3998    0.0814    0.0000 C   0  0  0  0  0  0  0  0  0  0  0  0
    4.1546    1.5612    0.0000 N   0  0  0  0  0  0  0  0  0  0  0  0
    5.3136    2.5135    0.0000 N   0  0  0  0  0  0  0  0  0  0  0  0
    6.7178    1.9858    0.0000 C   0  0  0  0  0  0  0  0  0  0  0  0
    7.8768    2.9381    0.0000 O   0  0  0  0  0  0  0  0  0  0  0  0
    6.9629    0.5060    0.0000 C   0  0  0  0  0  0  0  0  0  0  0  0
    5.8039   -0.4462    0.0000 C   0  0  0  0  0  0  0  0  0  0  0  0
    6.0491   -1.9260    0.0000 C   0  0  0  0  0  0  0  0  0  0  0  0
    7.4532   -2.4537    0.0000 C   0  0  0  0  0  0  0  0  0  0  0  0
    8.6122   -1.5014    0.0000 C   0  0  0  0  0  0  0  0  0  0  0  0
    8.3671   -0.0216    0.0000 C   0  0  0  0  0  0  0  0  0  0  0  0
    1.5915    1.1366    0.0000 C   0  0  0  0  0  0  0  0  0  0  0  0
    0.1874    1.6642    0.0000 C   0  0  0  0  0  0  0  0  0  0  0  0
   -0.9716    0.7120    0.0000 C   0  0  0  0  0  0  0  0  0  0  0  0
   -2.3758    1.2396    0.0000 F   0  0  0  0  0  0  0  0  0  0  0  0
   -3.2896   -1.1924    0.0000 N   0  0  0  0  0  0  0  0  0  0  0  0
   -3.5348    0.2874    0.0000 C   0  0  0  0  0  0  0  0  0  0  0  0
   -4.9389    0.8150    0.0000 C   0  0  0  0  0  0  0  0  0  0  0  0
   -6.0979   -0.1372    0.0000 N   0  0  0  0  0  0  0  0  0  0  0  0
   -7.5021    0.3904    0.0000 C   0  0  0  0  0  0  0  0  0  0  0  0
   -8.7543   -0.4354    0.0000 C   0  0  0  0  0  0  0  0  0  0  0  0
   -9.9266    0.5003    0.0000 C   0  0  0  0  0  0  0  0  0  0  0  0
   -9.3990    1.9044    0.0000 C   0  0  0  0  0  0  0  0  0  0  0  0
   -7.9006    1.8365    0.0000 O   0  0  0  0  0  0  0  0  0  0  0  0
   -5.8528   -1.6170    0.0000 C   0  0  0  0  0  0  0  0  0  0  0  0
   -4.4486   -2.1446    0.0000 C   0  0  0  0  0  0  0  0  0  0  0  0
  1  2  2  0
  2  3  1  0
  3  4  2  0
  4  5  1  0
  5  6  1  0
  6  7  1  0
  7  8  2  0
  8  9  1  0
  9 10  1  0
 10 11  2  0
 10 12  1  0
 12 13  2  0
 13 14  1  0
 14 15  1  0
 15 16  1  0
 16 17  1  0
  5 18  2  0
 18 19  1  0
 19 20  2  0
 20 21  1  0
  2 22  1  0
 22 23  1  0
 23 24  1  0
 24 25  1  0
 25 26  1  0
 26 27  2  0
 27 28  1  0
 28 29  2  0
 29 30  1  0
 25 31  1  0
 31 32  1  0
 20  3  1  0
 32 22  1  0
 13  7  1  0
 30 26  1  0
 17 12  1  0
M  END
$$$$

     RDKit          2D

 29 32  0  0  0  0  0  0  0  0999 V2000
   -3.5753   -2.4184    0.0000 O   0  0  0  0  0  0  0  0  0  0  0  0
   -2.2523   -1.7115    0.0000 C   0  0  0  0  0  0  0  0  0  0  0  0
   -2.2031   -0.2123    0.0000 N   0  0  0  0  0  0  0  0  0  0  0  0
   -3.4768    0.5800    0.0000 C   0  0  0  0  0  0  0  0  0  0  0  0
   -3.4275    2.0792    0.0000 C   0  0  0  0  0  0  0  0  0  0  0  0
   -4.7013    2.8714    0.0000 C   0  0  0  0  0  0  0  0  0  0  0  0
   -6.0242    2.1645    0.0000 C   0  0  0  0  0  0  0  0  0  0  0  0
   -7.2979    2.9567    0.0000 F   0  0  0  0  0  0  0  0  0  0  0  0
   -6.0735    0.6653    0.0000 C   0  0  0  0  0  0  0  0  0  0  0  0
   -7.3964   -0.0417    0.0000 F   0  0  0  0  0  0  0  0  0  0  0  0
   -4.7998   -0.1270    0.0000 C   0  0  0  0  0  0  0  0  0  0  0  0
   -0.9786   -2.5037    0.0000 C   0  0  0  0  0  0  0  0  0  0  0  0
   -1.0279   -4.0029    0.0000 C   0  0  0  0  0  0  0  0  0  0  0  0
    0.2458   -4.7951    0.0000 C   0  0  0  0  0  0  0  0  0  0  0  0
    1.5688   -4.0882    0.0000 C   0  0  0  0  0  0  0  0  0  0  0  0
    1.6181   -2.5890    0.0000 C   0  0  0  0  0  0  0  0  0  0  0  0
    2.9410   -1.8821    0.0000 C   0  0  0  0  0  0  0  0  0  0  0  0
    2.9903   -0.3829    0.0000 C   0  0  0  0  0  0  0  0  0  0  0  0
    1.7166    0.4094    0.0000 N   0  0  0  0  0  0  0  0  0  0  0  0
    1.7658    1.9086    0.0000 N   0  0  0  0  0  0  0  0  0  0  0  0
    3.0888    2.6155    0.0000 C   0  0  0  0  0  0  0  0  0  0  0  0
    3.1380    4.1147    0.0000 O   0  0  0  0  0  0  0  0  0  0  0  0
    4.3625    1.8233    0.0000 C   0  0  0  0  0  0  0  0  0  0  0  0
    4.3132    0.3241    0.0000 C   0  0  0  0  0  0  0  0  0  0  0  0
    5.5869   -0.4682    0.0000 C   0  0  0  0  0  0  0  0  0  0  0  0
    6.9099    0.2388    0.0000 C   0  0  0  0  0  0  0  0  0  0  0  0
    6.9592    1.7380    0.0000 C   0  0  0  0  0  0  0  0  0  0  0  0
    5.6854    2.5302    0.0000 C   0  0  0  0  0  0  0  0  0  0  0  0
    0.3443   -1.7968    0.0000 C   0  0  0  0  0  0  0  0  0  0  0  0
  1  2  2  0
  2  3  1  0
  3  4  1  0
  4  5  2  0
  5  6  1  0
  6  7  2  0
  7  8  1  0
  7  9  1  0
  9 10  1  0
  9 11  2  0
  2 12  1  0
 12 13  2  0
 13 14  1  0
 14 15  2  0
 15 16  1  0
 16 17  1  0
 17 18  1  0
 18 19  2  0
 19 20  1  0
 20 21  1  0
 21 22  2  0
 21 23  1  0
 23 24  2  0
 24 25  1  0
 25 26  1  0
 26 27  1  0
 27 28  1  0
 16 29  2  0
 11  4  1  0
 29 12  1  0
 24 18  1  0
 28 23  1  0
M  END
$$$$

     RDKit          2D

 28 31  0  0  0  0  0  0  0  0999 V2000
   -7.4368   -2.8410    0.0000 N   0  0  0  0  0  0  0  0  0  0  0  0
   -6.0783   -2.2051    0.0000 C   0  0  0  0  0  0  0  0  0  0  0  0
   -4.8483   -3.0636    0.0000 O   0  0  0  0  0  0  0  0  0  0  0  0
   -5.9497   -0.7106    0.0000 C   0  0  0  0  0  0  0  0  0  0  0  0
   -7.1797    0.1479    0.0000 C   0  0  0  0  0  0  0  0  0  0  0  0
   -7.0512    1.6424    0.0000 C   0  0  0  0  0  0  0  0  0  0  0  0
   -5.6927    2.2784    0.0000 C   0  0  0  0  0  0  0  0  0  0  0  0
   -4.4627    1.4198    0.0000 C   0  0  0  0  0  0  0  0  0  0  0  0
   -3.0016    1.7594    0.0000 N   0  0  0  0  0  0  0  0  0  0  0  0
   -2.2272    0.4748    0.0000 C   0  0  0  0  0  0  0  0  0  0  0  0
   -0.7327    0.3463    0.0000 C   0  0  0  0  0  0  0  0  0  0  0  0
   -0.0968   -1.0123    0.0000 C   0  0  0  0  0  0  0  0  0  0  0  0
    1.3977   -1.1408    0.0000 C   0  0  0  0  0  0  0  0  0  0  0  0
    2.2563    0.0892    0.0000 C   0  0  0  0  0  0  0  0  0  0  0  0
    3.7507   -0.0393    0.0000 C   0  0  0  0  0  0  0  0  0  0  0  0
    4.3867   -1.3978    0.0000 C   0  0  0  0  0  0  0  0  0  0  0  0
    5.8812   -1.5264    0.0000 C   0  0  0  0  0  0  0  0  0  0  0  0
    6.7397   -0.2964    0.0000 N   0  0  0  0  0  0  0  0  0  0  0  0
    8.2342   -0.4249    0.0000 C   0  0  0  0  0  0  0  0  0  0  0  0
    8.8701   -1.7834    0.0000 O   0  0  0  0  0  0  0  0  0  0  0  0
    9.0927    0.8051    0.0000 Cl  0  0  0  0  0  0  0  0  0  0  0  0
    6.1038    1.0622    0.0000 C   0  0  0  0  0  0  0  0  0  0  0  0
    4.6093    1.1907    0.0000 C   0  0  0  0  0  0  0  0  0  0  0  0
    1.6203    1.4477    0.0000 C   0  0  0  0  0  0  0  0  0  0  0  0
    0.1258    1.5763    0.0000 C   0  0  0  0  0  0  0  0  0  0  0  0
   -0.5101    2.9348    0.0000 F   0  0  0  0  0  0  0  0  0  0  0  0
   -3.2096   -0.6587    0.0000 N   0  0  0  0  0  0  0  0  0  0  0  0
   -4.5912   -0.0747    0.0000 C   0  0  0  0  0  0  0  0  0  0  0  0
  1  2  1  0
  2  3  2  0
  2  4  1  0
  4  5  2  0
  5  6  1  0
  6  7  2  0
  7  8  1  0
  8  9  1  0
  9 10  1  0
 10 11  1  0
 11 12  2  0
 12 13  1  0
 13 14  2  0
 14 15  1  0
 15 16  1  0
 16 17  1  0
 17 18  1  0
 18 19  1  0
 19 20  2  0
 19 21  1  0
 18 22  1  0
 22 23  1  0
 14 24  1  0
 24 25  2  0
 25 26  1  0
 10 27  2  0
 27 28  1  0
 28  4  1  0
 28  8  2  0
 25 11  1  0
 23 15  1  0
M  END
$$$$

     RDKit          2D

 18 20  0  0  0  0  0  0  0  0999 V2000
   -4.5761   -2.2638    0.0000 N   0  0  0  0  0  0  0  0  0  0  0  0
   -3.1494   -1.8006    0.0000 C   0  0  0  0  0  0  0  0  0  0  0  0
   -2.0349   -2.8046    0.0000 O   0  0  0  0  0  0  0  0  0  0  0  0
   -2.8372   -0.3335    0.0000 C   0  0  0  0  0  0  0  0  0  0  0  0
   -3.9517    0.6705    0.0000 C   0  0  0  0  0  0  0  0  0  0  0  0
   -3.6395    2.1376    0.0000 C   0  0  0  0  0  0  0  0  0  0  0  0
   -2.2128    2.6008    0.0000 C   0  0  0  0  0  0  0  0  0  0  0  0
   -1.0983    1.5969    0.0000 C   0  0  0  0  0  0  0  0  0  0  0  0
    0.3935    1.7534    0.0000 N   0  0  0  0  0  0  0  0  0  0  0  0
    1.0033    0.3829    0.0000 C   0  0  0  0  0  0  0  0  0  0  0  0
    2.4704    0.0707    0.0000 C   0  0  0  0  0  0  0  0  0  0  0  0
    2.9336   -1.3560    0.0000 C   0  0  0  0  0  0  0  0  0  0  0  0
    4.4008   -1.6682    0.0000 C   0  0  0  0  0  0  0  0  0  0  0  0
    5.4047   -0.5537    0.0000 C   0  0  0  0  0  0  0  0  0  0  0  0
    4.9415    0.8730    0.0000 C   0  0  0  0  0  0  0  0  0  0  0  0
    3.4744    1.1852    0.0000 C   0  0  0  0  0  0  0  0  0  0  0  0
   -0.1117   -0.6205    0.0000 N   0  0  0  0  0  0  0  0  0  0  0  0
   -1.4105    0.1297    0.0000 C   0  0  0  0  0  0  0  0  0  0  0  0
  1  2  1  0
  2  3  2  0
  2  4  1  0
  4  5  2  0
  5  6  1  0
  6  7  2  0
  7  8  1  0
  8  9  1  0
  9 10  1  0
 10 11  1  0
 11 12  2  0
 12 13  1  0
 13 14  2  0
 14 15  1  0
 15 16  2  0
 10 17  2  0
 17 18  1  0
 18  4  1  0
 18  8  2  0
 16 11  1  0
M  END
$$$$

     RDKit          2D

 28 31  0  0  0  0  0  0  0  0999 V2000
   -3.8758    1.0432    0.0000 C   0  0  0  0  0  0  0  0  0  0  0  0
   -4.8199   -0.1224    0.0000 C   0  0  0  0  0  0  0  0  0  0  0  0
   -3.5080   -0.8498    0.0000 C   0  0  0  0  0  0  0  0  0  0  0  0
   -3.4820   -2.3496    0.0000 O   0  0  0  0  0  0  0  0  0  0  0  0
   -2.2222   -0.0774    0.0000 C   0  0  0  0  0  0  0  0  0  0  0  0
   -0.9103   -0.8047    0.0000 C   0  0  0  0  0  0  0  0  0  0  0  0
    0.3755   -0.0323    0.0000 C   0  0  0  0  0  0  0  0  0  0  0  0
    1.6874   -0.7596    0.0000 C   0  0  0  0  0  0  0  0  0  0  0  0
    2.9732    0.0128    0.0000 C   0  0  0  0  0  0  0  0  0  0  0  0
    2.9472    1.5126    0.0000 N   0  0  0  0  0  0  0  0  0  0  0  0
    4.2330    2.2850    0.0000 N   0  0  0  0  0  0  0  0  0  0  0  0
    5.5449    1.5576    0.0000 C   0  0  0  0  0  0  0  0  0  0  0  0
    6.8307    2.3301    0.0000 O   0  0  0  0  0  0  0  0  0  0  0  0
    5.5709    0.0579    0.0000 C   0  0  0  0  0  0  0  0  0  0  0  0
    4.2851   -0.7146    0.0000 C   0  0  0  0  0  0  0  0  0  0  0  0
    4.3111   -2.2143    0.0000 N   0  0  0  0  0  0  0  0  0  0  0  0
    5.6229   -2.9417    0.0000 C   0  0  0  0  0  0  0  0  0  0  0  0
    6.9088   -2.1693    0.0000 C   0  0  0  0  0  0  0  0  0  0  0  0
    6.8827   -0.6695    0.0000 C   0  0  0  0  0  0  0  0  0  0  0  0
    0.3495    1.4675    0.0000 C   0  0  0  0  0  0  0  0  0  0  0  0
   -0.9624    2.1948    0.0000 C   0  0  0  0  0  0  0  0  0  0  0  0
   -2.2482    1.4224    0.0000 C   0  0  0  0  0  0  0  0  0  0  0  0
   -3.5600    2.1498    0.0000 F   0  0  0  0  0  0  0  0  0  0  0  0
   -5.3084   -1.5407    0.0000 C   0  0  0  0  0  0  0  0  0  0  0  0
   -6.7808   -1.8267    0.0000 C   0  0  0  0  0  0  0  0  0  0  0  0
   -7.7648   -0.6945    0.0000 C   0  0  0  0  0  0  0  0  0  0  0  0
   -7.2763    0.7237    0.0000 N   0  0  0  0  0  0  0  0  0  0  0  0
   -5.8038    1.0097    0.0000 C   0  0  0  0  0  0  0  0  0  0  0  0
  1  2  1  0
  2  3  1  0
  3  4  2  0
  3  5  1  0
  5  6  2  0
  6  7  1  0
  7  8  1  0
  8  9  1  0
  9 10  2  0
 10 11  1  0
 11 12  1  0
 12 13  2  0
 12 14  1  0
 14 15  2  0
 15 16  1  0
 16 17  1  0
 17 18  1  0
 18 19  1  0
  7 20  2  0
 20 21  1  0
 21 22  2  0
 22 23  1  0
  2 24  1  0
 24 25  1  0
 25 26  1  0
 26 27  1  0
 27 28  1  0
 28  2  1  0
 22  5  1  0
 15  9  1  0
 19 14  1  0
M  END
$$$$

     RDKit          2D

 24 27  0  0  0  0  0  0  0  0999 V2000
   -6.4367   -2.6103    0.0000 N   0  0  0  0  0  0  0  0  0  0  0  0
   -5.0621   -2.0100    0.0000 C   0  0  0  0  0  0  0  0  0  0  0  0
   -3.8549   -2.9003    0.0000 O   0  0  0  0  0  0  0  0  0  0  0  0
   -4.8947   -0.5194    0.0000 C   0  0  0  0  0  0  0  0  0  0  0  0
   -6.1019    0.3710    0.0000 C   0  0  0  0  0  0  0  0  0  0  0  0
   -5.9344    1.8616    0.0000 C   0  0  0  0  0  0  0  0  0  0  0  0
   -4.5598    2.4619    0.0000 C   0  0  0  0  0  0  0  0  0  0  0  0
   -3.3526    1.5716    0.0000 C   0  0  0  0  0  0  0  0  0  0  0  0
   -1.8832    1.8729    0.0000 N   0  0  0  0  0  0  0  0  0  0  0  0
   -1.1425    0.5686    0.0000 C   0  0  0  0  0  0  0  0  0  0  0  0
    0.3482    0.4011    0.0000 C   0  0  0  0  0  0  0  0  0  0  0  0
    0.9485   -0.9735    0.0000 C   0  0  0  0  0  0  0  0  0  0  0  0
    2.4391   -1.1409    0.0000 C   0  0  0  0  0  0  0  0  0  0  0  0
    3.3294    0.0663    0.0000 C   0  0  0  0  0  0  0  0  0  0  0  0
    4.8200   -0.1012    0.0000 C   0  0  0  0  0  0  0  0  0  0  0  0
    5.4203   -1.4758    0.0000 C   0  0  0  0  0  0  0  0  0  0  0  0
    6.9110   -1.6433    0.0000 C   0  0  0  0  0  0  0  0  0  0  0  0
    7.8013   -0.4361    0.0000 C   0  0  0  0  0  0  0  0  0  0  0  0
    7.2010    0.9386    0.0000 C   0  0  0  0  0  0  0  0  0  0  0  0
    5.7104    1.1060    0.0000 N   0  0  0  0  0  0  0  0  0  0  0  0
    2.7291    1.4409    0.0000 C   0  0  0  0  0  0  0  0  0  0  0  0
    1.2385    1.6083    0.0000 C   0  0  0  0  0  0  0  0  0  0  0  0
   -2.1541   -0.5389    0.0000 N   0  0  0  0  0  0  0  0  0  0  0  0
   -3.5200    0.0809    0.0000 C   0  0  0  0  0  0  0  0  0  0  0  0
  1  2  1  0
  2  3  2  0
  2  4  1  0
  4  5  2  0
  5  6  1  0
  6  7  2  0
  7  8  1  0
  8  9  1  0
  9 10  1  0
 10 11  1  0
 11 12  2  0
 12 13  1  0
 13 14  2  0
 14 15  1  0
 15 16  1  0
 16 17  1  0
 17 18  1  0
 18 19  1  0
 19 20  1  0
 14 21  1  0
 21 22  2  0
 10 23  2  0
 23 24  1  0
 24  4  1  0
 24  8  2  0
 22 11  1  0
 20 15  1  0
M  END
$$$$

     RDKit          2D

 27 30  0  0  0  0  0  0  0  0999 V2000
   -6.2522    3.7583    0.0000 C   0  0  0  0  0  0  0  0  0  0  0  0
   -5.6877    2.3686    0.0000 N   0  0  0  0  0  0  0  0  0  0  0  0
   -6.4803    1.0950    0.0000 C   0  0  0  0  0  0  0  0  0  0  0  0
   -5.5140   -0.0523    0.0000 N   0  0  0  0  0  0  0  0  0  0  0  0
   -4.1243    0.5122    0.0000 C   0  0  0  0  0  0  0  0  0  0  0  0
   -2.8508   -0.2804    0.0000 C   0  0  0  0  0  0  0  0  0  0  0  0
   -1.5276    0.4262    0.0000 O   0  0  0  0  0  0  0  0  0  0  0  0
   -2.9004   -1.7796    0.0000 N   0  0  0  0  0  0  0  0  0  0  0  0
   -1.6269   -2.5722    0.0000 C   0  0  0  0  0  0  0  0  0  0  0  0
   -1.6765   -4.0713    0.0000 C   0  0  0  0  0  0  0  0  0  0  0  0
   -0.4030   -4.8639    0.0000 C   0  0  0  0  0  0  0  0  0  0  0  0
    0.9201   -4.1573    0.0000 C   0  0  0  0  0  0  0  0  0  0  0  0
    0.9698   -2.6581    0.0000 C   0  0  0  0  0  0  0  0  0  0  0  0
    2.2929   -1.9515    0.0000 C   0  0  0  0  0  0  0  0  0  0  0  0
    2.3425   -0.4523    0.0000 C   0  0  0  0  0  0  0  0  0  0  0  0
    1.0690    0.3402    0.0000 N   0  0  0  0  0  0  0  0  0  0  0  0
    1.1187    1.8394    0.0000 N   0  0  0  0  0  0  0  0  0  0  0  0
    2.4418    2.5460    0.0000 C   0  0  0  0  0  0  0  0  0  0  0  0
    2.4914    4.0452    0.0000 O   0  0  0  0  0  0  0  0  0  0  0  0
    3.7153    1.7534    0.0000 C   0  0  0  0  0  0  0  0  0  0  0  0
    3.6657    0.2543    0.0000 C   0  0  0  0  0  0  0  0  0  0  0  0
    4.9392   -0.5383    0.0000 C   0  0  0  0  0  0  0  0  0  0  0  0
    6.2623    0.1683    0.0000 C   0  0  0  0  0  0  0  0  0  0  0  0
    6.3120    1.6675    0.0000 C   0  0  0  0  0  0  0  0  0  0  0  0
    5.0385    2.4600    0.0000 C   0  0  0  0  0  0  0  0  0  0  0  0
   -0.3038   -1.8656    0.0000 C   0  0  0  0  0  0  0  0  0  0  0  0
   -4.2316    2.0083    0.0000 C   0  0  0  0  0  0  0  0  0  0  0  0
  1  2  1  0
  2  3  1  0
  3  4  2  0
  4  5  1  0
  5  6  1  0
  6  7  2  0
  6  8  1  0
  8  9  1  0
  9 10  2  0
 10 11  1  0
 11 12  2  0
 12 13  1  0
 13 14  1  0
 14 15  1  0
 15 16  2  0
 16 17  1  0
 17 18  1  0
 18 19  2  0
 18 20  1  0
 20 21  2  0
 21 22  1  0
 22 23  1  0
 23 24  1  0
 24 25  1  0
 13 26  2  0
  5 27  2  0
 27  2  1  0
 26  9  1  0
 21 15  1  0
 25 20  1  0
M  END
$$$$

     RDKit          2D

 31 35  0  0  0  0  0  0  0  0999 V2000
   -1.9860   -3.1386    0.0000 O   0  0  0  0  0  0  0  0  0  0  0  0
   -2.2128   -1.6558    0.0000 C   0  0  0  0  0  0  0  0  0  0  0  0
   -1.0420   -0.7181    0.0000 C   0  0  0  0  0  0  0  0  0  0  0  0
    0.3555   -1.2631    0.0000 C   0  0  0  0  0  0  0  0  0  0  0  0
    1.5262   -0.3253    0.0000 C   0  0  0  0  0  0  0  0  0  0  0  0
    2.9237   -0.8703    0.0000 C   0  0  0  0  0  0  0  0  0  0  0  0
    4.0944    0.0674    0.0000 C   0  0  0  0  0  0  0  0  0  0  0  0
    3.8677    1.5502    0.0000 N   0  0  0  0  0  0  0  0  0  0  0  0
    5.0384    2.4879    0.0000 N   0  0  0  0  0  0  0  0  0  0  0  0
    6.4359    1.9429    0.0000 C   0  0  0  0  0  0  0  0  0  0  0  0
    7.6066    2.8807    0.0000 O   0  0  0  0  0  0  0  0  0  0  0  0
    6.6626    0.4602    0.0000 C   0  0  0  0  0  0  0  0  0  0  0  0
    5.4919   -0.4776    0.0000 C   0  0  0  0  0  0  0  0  0  0  0  0
    5.7186   -1.9604    0.0000 N   0  0  0  0  0  0  0  0  0  0  0  0
    7.1161   -2.5054    0.0000 C   0  0  0  0  0  0  0  0  0  0  0  0
    8.2869   -1.5676    0.0000 C   0  0  0  0  0  0  0  0  0  0  0  0
    8.0601   -0.0848    0.0000 C   0  0  0  0  0  0  0  0  0  0  0  0
    1.2994    1.1574    0.0000 C   0  0  0  0  0  0  0  0  0  0  0  0
   -0.0981    1.7024    0.0000 C   0  0  0  0  0  0  0  0  0  0  0  0
   -1.2688    0.7647    0.0000 C   0  0  0  0  0  0  0  0  0  0  0  0
   -2.6663    1.3097    0.0000 F   0  0  0  0  0  0  0  0  0  0  0  0
   -3.6103   -1.1108    0.0000 N   0  0  0  0  0  0  0  0  0  0  0  0
   -3.8370    0.3719    0.0000 C   0  0  0  0  0  0  0  0  0  0  0  0
   -5.2345    0.9169    0.0000 C   0  0  0  0  0  0  0  0  0  0  0  0
   -6.4052   -0.0208    0.0000 N   0  0  0  0  0  0  0  0  0  0  0  0
   -7.8027    0.5242    0.0000 C   0  0  0  0  0  0  0  0  0  0  0  0
   -8.4055    1.8978    0.0000 C   0  0  0  0  0  0  0  0  0  0  0  0
   -9.7791    1.2950    0.0000 C   0  0  0  0  0  0  0  0  0  0  0  0
   -9.1763   -0.0786    0.0000 C   0  0  0  0  0  0  0  0  0  0  0  0
   -6.1785   -1.5036    0.0000 C   0  0  0  0  0  0  0  0  0  0  0  0
   -4.7810   -2.0486    0.0000 C   0  0  0  0  0  0  0  0  0  0  0  0
  1  2  2  0
  2  3  1  0
  3  4  2  0
  4  5  1  0
  5  6  1  0
  6  7  1  0
  7  8  2  0
  8  9  1  0
  9 10  1  0
 10 11  2  0
 10 12  1  0
 12 13  2  0
 13 14  1  0
 14 15  1  0
 15 16  1  0
 16 17  1  0
  5 18  2  0
 18 19  1  0
 19 20  2  0
 20 21  1  0
  2 22  1  0
 22 23  1  0
 23 24  1  0
 24 25  1  0
 25 26  1  0
 26 27  1  0
 27 28  1  0
 28 29  1  0
 25 30  1  0
 30 31  1  0
 20  3  1  0
 31 22  1  0
 13  7  1  0
 29 26  1  0
 17 12  1  0
M  END
$$$$

     RDKit          2D

 18 20  0  0  0  0  0  0  0  0999 V2000
   -3.7210    2.0679    0.0000 C   0  0  0  0  0  0  0  0  0  0  0  0
   -3.7415    0.5681    0.0000 N   0  0  0  0  0  0  0  0  0  0  0  0
   -4.9669   -0.2970    0.0000 C   0  0  0  0  0  0  0  0  0  0  0  0
   -4.5229   -1.7298    0.0000 C   0  0  0  0  0  0  0  0  0  0  0  0
   -3.0230   -1.7502    0.0000 C   0  0  0  0  0  0  0  0  0  0  0  0
   -2.5401   -0.3301    0.0000 N   0  0  0  0  0  0  0  0  0  0  0  0
   -1.1073    0.1140    0.0000 C   0  0  0  0  0  0  0  0  0  0  0  0
    0.0941   -0.7842    0.0000 N   0  0  0  0  0  0  0  0  0  0  0  0
    1.3195    0.0809    0.0000 C   0  0  0  0  0  0  0  0  0  0  0  0
    2.7823   -0.2509    0.0000 C   0  0  0  0  0  0  0  0  0  0  0  0
    3.2264   -1.6837    0.0000 C   0  0  0  0  0  0  0  0  0  0  0  0
    4.6892   -2.0155    0.0000 N   0  0  0  0  0  0  0  0  0  0  0  0
    2.2076   -2.7846    0.0000 O   0  0  0  0  0  0  0  0  0  0  0  0
    3.8011    0.8500    0.0000 C   0  0  0  0  0  0  0  0  0  0  0  0
    3.3571    2.2828    0.0000 C   0  0  0  0  0  0  0  0  0  0  0  0
    1.8943    2.6146    0.0000 C   0  0  0  0  0  0  0  0  0  0  0  0
    0.8755    1.5137    0.0000 C   0  0  0  0  0  0  0  0  0  0  0  0
   -0.6244    1.5341    0.0000 N   0  0  0  0  0  0  0  0  0  0  0  0
  1  2  1  0
  2  3  1  0
  3  4  1  0
  4  5  1  0
  5  6  1  0
  6  7  1  0
  7  8  2  0
  8  9  1  0
  9 10  2  0
 10 11  1  0
 11 12  1  0
 11 13  2  0
 10 14  1  0
 14 15  2  0
 15 16  1  0
 16 17  2  0
 17 18  1  0
  6  2  1  0
 18  7  1  0
 17  9  1  0
M  END
$$$$

     RDKit          2D

 28 31  0  0  0  0  0  0  0  0999 V2000
   -8.7362    1.0809    0.0000 C   0  0  0  0  0  0  0  0  0  0  0  0
   -7.3683    0.4656    0.0000 N   0  0  0  0  0  0  0  0  0  0  0  0
   -6.1514    1.3426    0.0000 C   0  0  0  0  0  0  0  0  0  0  0  0
   -4.7834    0.7273    0.0000 C   0  0  0  0  0  0  0  0  0  0  0  0
   -4.6323   -0.7651    0.0000 N   0  0  0  0  0  0  0  0  0  0  0  0
   -3.2643   -1.3805    0.0000 C   0  0  0  0  0  0  0  0  0  0  0  0
   -3.1132   -2.8728    0.0000 O   0  0  0  0  0  0  0  0  0  0  0  0
   -2.0474   -0.5034    0.0000 C   0  0  0  0  0  0  0  0  0  0  0  0
   -0.6795   -1.1188    0.0000 C   0  0  0  0  0  0  0  0  0  0  0  0
    0.5374   -0.2417    0.0000 C   0  0  0  0  0  0  0  0  0  0  0  0
    1.9054   -0.8571    0.0000 C   0  0  0  0  0  0  0  0  0  0  0  0
    3.1223    0.0199    0.0000 C   0  0  0  0  0  0  0  0  0  0  0  0
    2.9712    1.5123    0.0000 N   0  0  0  0  0  0  0  0  0  0  0  0
    4.1881    2.3893    0.0000 N   0  0  0  0  0  0  0  0  0  0  0  0
    5.5561    1.7740    0.0000 C   0  0  0  0  0  0  0  0  0  0  0  0
    6.7730    2.6510    0.0000 O   0  0  0  0  0  0  0  0  0  0  0  0
    5.7071    0.2816    0.0000 C   0  0  0  0  0  0  0  0  0  0  0  0
    4.4903   -0.5954    0.0000 C   0  0  0  0  0  0  0  0  0  0  0  0
    4.6413   -2.0878    0.0000 N   0  0  0  0  0  0  0  0  0  0  0  0
    6.0093   -2.7031    0.0000 C   0  0  0  0  0  0  0  0  0  0  0  0
    7.2262   -1.8261    0.0000 C   0  0  0  0  0  0  0  0  0  0  0  0
    7.0751   -0.3337    0.0000 C   0  0  0  0  0  0  0  0  0  0  0  0
    0.3863    1.2506    0.0000 C   0  0  0  0  0  0  0  0  0  0  0  0
   -0.9816    1.8660    0.0000 C   0  0  0  0  0  0  0  0  0  0  0  0
   -2.1985    0.9889    0.0000 C   0  0  0  0  0  0  0  0  0  0  0  0
   -3.5665    1.6043    0.0000 F   0  0  0  0  0  0  0  0  0  0  0  0
   -5.8492   -1.6421    0.0000 C   0  0  0  0  0  0  0  0  0  0  0  0
   -7.2172   -1.0268    0.0000 C   0  0  0  0  0  0  0  0  0  0  0  0
  1  2  1  0
  2  3  1  0
  3  4  1  0
  4  5  1  0
  5  6  1  0
  6  7  2  0
  6  8  1  0
  8  9  2  0
  9 10  1  0
 10 11  1  0
 11 12  1  0
 12 13  2  0
 13 14  1  0
 14 15  1  0
 15 16  2  0
 15 17  1  0
 17 18  2  0
 18 19  1  0
 19 20  1  0
 20 21  1  0
 21 22  1  0
 10 23  2  0
 23 24  1  0
 24 25  2  0
 25 26  1  0
  5 27  1  0
 27 28  1  0
 28  2  1  0
 25  8  1  0
 18 12  1  0
 22 17  1  0
M  END
$$$$

     RDKit          2D

 35 39  0  0  0  0  0  0  0  0999 V2000
   -7.9167   -1.8704    0.0000 O   0  0  0  0  0  0  0  0  0  0  0  0
   -6.8664   -0.7995    0.0000 C   0  0  0  0  0  0  0  0  0  0  0  0
   -7.2687    0.6456    0.0000 C   0  0  0  0  0  0  0  0  0  0  0  0
   -6.2184    1.7165    0.0000 N   0  0  0  0  0  0  0  0  0  0  0  0
   -6.6207    3.1615    0.0000 C   0  0  0  0  0  0  0  0  0  0  0  0
   -8.0733    3.5356    0.0000 N   0  0  0  0  0  0  0  0  0  0  0  0
   -9.1236    2.4647    0.0000 C   0  0  0  0  0  0  0  0  0  0  0  0
   -8.7213    1.0197    0.0000 N   0  0  0  0  0  0  0  0  0  0  0  0
   -5.4138   -1.1736    0.0000 N   0  0  0  0  0  0  0  0  0  0  0  0
   -5.0115   -2.6186    0.0000 C   0  0  0  0  0  0  0  0  0  0  0  0
   -3.5589   -2.9927    0.0000 C   0  0  0  0  0  0  0  0  0  0  0  0
   -2.5086   -1.9218    0.0000 N   0  0  0  0  0  0  0  0  0  0  0  0
   -1.0560   -2.2959    0.0000 C   0  0  0  0  0  0  0  0  0  0  0  0
   -0.6537   -3.7410    0.0000 O   0  0  0  0  0  0  0  0  0  0  0  0
   -0.0057   -1.2250    0.0000 C   0  0  0  0  0  0  0  0  0  0  0  0
    1.4469   -1.5991    0.0000 C   0  0  0  0  0  0  0  0  0  0  0  0
    2.4972   -0.5282    0.0000 C   0  0  0  0  0  0  0  0  0  0  0  0
    3.9498   -0.9023    0.0000 C   0  0  0  0  0  0  0  0  0  0  0  0
    5.0001    0.1687    0.0000 C   0  0  0  0  0  0  0  0  0  0  0  0
    4.5978    1.6137    0.0000 N   0  0  0  0  0  0  0  0  0  0  0  0
    5.6480    2.6846    0.0000 N   0  0  0  0  0  0  0  0  0  0  0  0
    7.1006    2.3105    0.0000 C   0  0  0  0  0  0  0  0  0  0  0  0
    8.1509    3.3815    0.0000 O   0  0  0  0  0  0  0  0  0  0  0  0
    7.5030    0.8655    0.0000 C   0  0  0  0  0  0  0  0  0  0  0  0
    6.4527   -0.2054    0.0000 C   0  0  0  0  0  0  0  0  0  0  0  0
    6.8550   -1.6505    0.0000 N   0  0  0  0  0  0  0  0  0  0  0  0
    8.3076   -2.0246    0.0000 C   0  0  0  0  0  0  0  0  0  0  0  0
    9.3579   -0.9537    0.0000 C   0  0  0  0  0  0  0  0  0  0  0  0
    8.9556    0.4914    0.0000 C   0  0  0  0  0  0  0  0  0  0  0  0
    2.0949    0.9169    0.0000 C   0  0  0  0  0  0  0  0  0  0  0  0
    0.6423    1.2910    0.0000 C   0  0  0  0  0  0  0  0  0  0  0  0
   -0.4080    0.2201    0.0000 C   0  0  0  0  0  0  0  0  0  0  0  0
   -1.8606    0.5942    0.0000 F   0  0  0  0  0  0  0  0  0  0  0  0
   -2.9109   -0.4768    0.0000 C   0  0  0  0  0  0  0  0  0  0  0  0
   -4.3635   -0.1027    0.0000 C   0  0  0  0  0  0  0  0  0  0  0  0
  1  2  2  0
  2  3  1  0
  3  4  2  0
  4  5  1  0
  5  6  2  0
  6  7  1  0
  7  8  2  0
  2  9  1  0
  9 10  1  0
 10 11  1  0
 11 12  1  0
 12 13  1  0
 13 14  2  0
 13 15  1  0
 15 16  2  0
 16 17  1  0
 17 18  1  0
 18 19  1  0
 19 20  2  0
 20 21  1  0
 21 22  1  0
 22 23  2  0
 22 24  1  0
 24 25  2  0
 25 26  1  0
 26 27  1  0
 27 28  1  0
 28 29  1  0
 17 30  2  0
 30 31  1  0
 31 32  2  0
 32 33  1  0
 12 34  1  0
 34 35  1  0
  8  3  1  0
 35  9  1  0
 32 15  1  0
 25 19  1  0
 29 24  1  0
M  END
$$$$

     RDKit          2D

 29 32  0  0  0  0  0  0  0  0999 V2000
   -9.5214   -0.6400    0.0000 C   0  0  0  0  0  0  0  0  0  0  0  0
   -8.1878   -1.3266    0.0000 C   0  0  0  0  0  0  0  0  0  0  0  0
   -6.9264   -0.5149    0.0000 N   0  0  0  0  0  0  0  0  0  0  0  0
   -6.9986    0.9833    0.0000 C   0  0  0  0  0  0  0  0  0  0  0  0
   -5.7371    1.7950    0.0000 C   0  0  0  0  0  0  0  0  0  0  0  0
   -4.4035    1.1083    0.0000 C   0  0  0  0  0  0  0  0  0  0  0  0
   -4.3313   -0.3899    0.0000 N   0  0  0  0  0  0  0  0  0  0  0  0
   -2.9977   -1.0765    0.0000 C   0  0  0  0  0  0  0  0  0  0  0  0
   -2.9255   -2.5748    0.0000 O   0  0  0  0  0  0  0  0  0  0  0  0
   -1.7362   -0.2649    0.0000 C   0  0  0  0  0  0  0  0  0  0  0  0
   -0.4026   -0.9515    0.0000 C   0  0  0  0  0  0  0  0  0  0  0  0
    0.8588   -0.1399    0.0000 C   0  0  0  0  0  0  0  0  0  0  0  0
    2.1924   -0.8265    0.0000 C   0  0  0  0  0  0  0  0  0  0  0  0
    3.4539   -0.0148    0.0000 C   0  0  0  0  0  0  0  0  0  0  0  0
    3.3817    1.4834    0.0000 N   0  0  0  0  0  0  0  0  0  0  0  0
    4.6431    2.2951    0.0000 N   0  0  0  0  0  0  0  0  0  0  0  0
    5.9768    1.6084    0.0000 C   0  0  0  0  0  0  0  0  0  0  0  0
    7.2382    2.4201    0.0000 O   0  0  0  0  0  0  0  0  0  0  0  0
    6.0490    0.1102    0.0000 C   0  0  0  0  0  0  0  0  0  0  0  0
    4.7875   -0.7015    0.0000 C   0  0  0  0  0  0  0  0  0  0  0  0
    4.8597   -2.1997    0.0000 N   0  0  0  0  0  0  0  0  0  0  0  0
    6.1933   -2.8863    0.0000 C   0  0  0  0  0  0  0  0  0  0  0  0
    7.4548   -2.0747    0.0000 C   0  0  0  0  0  0  0  0  0  0  0  0
    7.3826   -0.5764    0.0000 C   0  0  0  0  0  0  0  0  0  0  0  0
    0.7866    1.3584    0.0000 C   0  0  0  0  0  0  0  0  0  0  0  0
   -0.5470    2.0450    0.0000 C   0  0  0  0  0  0  0  0  0  0  0  0
   -1.8084    1.2334    0.0000 C   0  0  0  0  0  0  0  0  0  0  0  0
   -3.1421    1.9200    0.0000 F   0  0  0  0  0  0  0  0  0  0  0  0
   -5.5928   -1.2016    0.0000 C   0  0  0  0  0  0  0  0  0  0  0  0
  1  2  1  0
  2  3  1  0
  3  4  1  0
  4  5  1  0
  5  6  1  0
  6  7  1  0
  7  8  1  0
  8  9  2  0
  8 10  1  0
 10 11  2  0
 11 12  1  0
 12 13  1  0
 13 14  1  0
 14 15  2  0
 15 16  1  0
 16 17  1  0
 17 18  2  0
 17 19  1  0
 19 20  2  0
 20 21  1  0
 21 22  1  0
 22 23  1  0
 23 24  1  0
 12 25  2  0
 25 26  1  0
 26 27  2  0
 27 28  1  0
  7 29  1  0
 29  3  1  0
 27 10  1  0
 20 14  1  0
 24 19  1  0
M  END
$$$$

     RDKit          2D

 28 31  0  0  0  0  0  0  0  0999 V2000
   -4.1425   -1.8306    0.0000 O   0  0  0  0  0  0  0  0  0  0  0  0
   -2.7525   -1.2668    0.0000 C   0  0  0  0  0  0  0  0  0  0  0  0
   -2.5458    0.2189    0.0000 N   0  0  0  0  0  0  0  0  0  0  0  0
   -3.7291    1.1408    0.0000 C   0  0  0  0  0  0  0  0  0  0  0  0
   -3.5224    2.6265    0.0000 C   0  0  0  0  0  0  0  0  0  0  0  0
   -4.7057    3.5483    0.0000 C   0  0  0  0  0  0  0  0  0  0  0  0
   -6.0957    2.9844    0.0000 C   0  0  0  0  0  0  0  0  0  0  0  0
   -6.3024    1.4987    0.0000 C   0  0  0  0  0  0  0  0  0  0  0  0
   -5.1191    0.5769    0.0000 C   0  0  0  0  0  0  0  0  0  0  0  0
   -5.3258   -0.9088    0.0000 Cl  0  0  0  0  0  0  0  0  0  0  0  0
   -1.5692   -2.1886    0.0000 C   0  0  0  0  0  0  0  0  0  0  0  0
   -1.7758   -3.6743    0.0000 C   0  0  0  0  0  0  0  0  0  0  0  0
   -0.5925   -4.5961    0.0000 C   0  0  0  0  0  0  0  0  0  0  0  0
    0.7975   -4.0323    0.0000 C   0  0  0  0  0  0  0  0  0  0  0  0
    1.0041   -2.5466    0.0000 C   0  0  0  0  0  0  0  0  0  0  0  0
    2.3941   -1.9827    0.0000 C   0  0  0  0  0  0  0  0  0  0  0  0
    2.6008   -0.4970    0.0000 C   0  0  0  0  0  0  0  0  0  0  0  0
    1.4175    0.4248    0.0000 N   0  0  0  0  0  0  0  0  0  0  0  0
    1.6242    1.9105    0.0000 N   0  0  0  0  0  0  0  0  0  0  0  0
    3.0141    2.4744    0.0000 C   0  0  0  0  0  0  0  0  0  0  0  0
    3.2208    3.9601    0.0000 O   0  0  0  0  0  0  0  0  0  0  0  0
    4.1975    1.5525    0.0000 C   0  0  0  0  0  0  0  0  0  0  0  0
    3.9908    0.0668    0.0000 C   0  0  0  0  0  0  0  0  0  0  0  0
    5.1741   -0.8550    0.0000 C   0  0  0  0  0  0  0  0  0  0  0  0
    6.5641   -0.2911    0.0000 C   0  0  0  0  0  0  0  0  0  0  0  0
    6.7708    1.1946    0.0000 C   0  0  0  0  0  0  0  0  0  0  0  0
    5.5874    2.1164    0.0000 C   0  0  0  0  0  0  0  0  0  0  0  0
   -0.1792   -1.6247    0.0000 C   0  0  0  0  0  0  0  0  0  0  0  0
  1  2  2  0
  2  3  1  0
  3  4  1  0
  4  5  2  0
  5  6  1  0
  6  7  2  0
  7  8  1  0
  8  9  2  0
  9 10  1  0
  2 11  1  0
 11 12  2  0
 12 13  1  0
 13 14  2  0
 14 15  1  0
 15 16  1  0
 16 17  1  0
 17 18  2  0
 18 19  1  0
 19 20  1  0
 20 21  2  0
 20 22  1  0
 22 23  2  0
 23 24  1  0
 24 25  1  0
 25 26  1  0
 26 27  1  0
 15 28  2  0
  9  4  1  0
 28 11  1  0
 23 17  1  0
 27 22  1  0
M  END
$$$$

     RDKit          2D

 32 35  0  0  0  0  0  0  0  0999 V2000
   -9.7609    1.3978    0.0000 C   0  0  0  0  0  0  0  0  0  0  0  0
   -8.2895    1.1060    0.0000 C   0  0  0  0  0  0  0  0  0  0  0  0
   -7.4569    2.3537    0.0000 C   0  0  0  0  0  0  0  0  0  0  0  0
   -5.9859    2.6471    0.0000 C   0  0  0  0  0  0  0  0  0  0  0  0
   -4.7382    1.8145    0.0000 C   0  0  0  0  0  0  0  0  0  0  0  0
   -4.4447    0.3435    0.0000 C   0  0  0  0  0  0  0  0  0  0  0  0
   -2.9734    0.0517    0.0000 C   0  0  0  0  0  0  0  0  0  0  0  0
   -2.4904   -1.3684    0.0000 C   0  0  0  0  0  0  0  0  0  0  0  0
   -1.0191   -1.6602    0.0000 C   0  0  0  0  0  0  0  0  0  0  0  0
   -0.0307   -0.5319    0.0000 O   0  0  0  0  0  0  0  0  0  0  0  0
   -0.5361   -3.0804    0.0000 N   0  0  0  0  0  0  0  0  0  0  0  0
    0.9353   -3.3722    0.0000 C   0  0  0  0  0  0  0  0  0  0  0  0
    1.4182   -4.7923    0.0000 C   0  0  0  0  0  0  0  0  0  0  0  0
    2.8896   -5.0841    0.0000 C   0  0  0  0  0  0  0  0  0  0  0  0
    3.8779   -3.9558    0.0000 C   0  0  0  0  0  0  0  0  0  0  0  0
    3.3950   -2.5357    0.0000 C   0  0  0  0  0  0  0  0  0  0  0  0
    4.3834   -1.4073    0.0000 C   0  0  0  0  0  0  0  0  0  0  0  0
    3.9004    0.0128    0.0000 C   0  0  0  0  0  0  0  0  0  0  0  0
    2.4290    0.3046    0.0000 N   0  0  0  0  0  0  0  0  0  0  0  0
    1.9461    1.7247    0.0000 N   0  0  0  0  0  0  0  0  0  0  0  0
    2.9345    2.8530    0.0000 C   0  0  0  0  0  0  0  0  0  0  0  0
    2.4515    4.2732    0.0000 O   0  0  0  0  0  0  0  0  0  0  0  0
    4.4058    2.5612    0.0000 C   0  0  0  0  0  0  0  0  0  0  0  0
    4.8888    1.1411    0.0000 C   0  0  0  0  0  0  0  0  0  0  0  0
    6.3601    0.8493    0.0000 C   0  0  0  0  0  0  0  0  0  0  0  0
    7.3485    1.9776    0.0000 C   0  0  0  0  0  0  0  0  0  0  0  0
    6.8655    3.3977    0.0000 C   0  0  0  0  0  0  0  0  0  0  0  0
    5.3942    3.6895    0.0000 C   0  0  0  0  0  0  0  0  0  0  0  0
    1.9236   -2.2439    0.0000 C   0  0  0  0  0  0  0  0  0  0  0  0
   -5.2774   -0.9042    0.0000 C   0  0  0  0  0  0  0  0  0  0  0  0
   -6.7484   -1.1977    0.0000 N   0  0  0  0  0  0  0  0  0  0  0  0
   -7.9960   -0.3650    0.0000 C   0  0  0  0  0  0  0  0  0  0  0  0
  1  2  1  0
  2  3  2  0
  3  4  1  0
  4  5  2  0
  5  6  1  0
  6  7  1  0
  7  8  1  0
  8  9  1  0
  9 10  2  0
  9 11  1  0
 11 12  1  0
 12 13  2  0
 13 14  1  0
 14 15  2  0
 15 16  1  0
 16 17  1  0
 17 18  1  0
 18 19  2  0
 19 20  1  0
 20 21  1  0
 21 22  2  0
 21 23  1  0
 23 24  2  0
 24 25  1  0
 25 26  1  0
 26 27  1  0
 27 28  1  0
 16 29  2  0
  6 30  2  0
 30 31  1  0
 31 32  2  0
 32  2  1  0
 29 12  1  0
 24 18  1  0
 28 23  1  0
M  END
$$$$

     RDKit          2D

 35 39  0  0  0  0  0  0  0  0999 V2000
   -0.6072   -3.7065    0.0000 O   0  0  0  0  0  0  0  0  0  0  0  0
   -1.0042   -2.2600    0.0000 C   0  0  0  0  0  0  0  0  0  0  0  0
    0.0499   -1.1929    0.0000 C   0  0  0  0  0  0  0  0  0  0  0  0
    1.5012   -1.5723    0.0000 C   0  0  0  0  0  0  0  0  0  0  0  0
    2.5553   -0.5052    0.0000 C   0  0  0  0  0  0  0  0  0  0  0  0
    4.0066   -0.8846    0.0000 C   0  0  0  0  0  0  0  0  0  0  0  0
    5.0607    0.1825    0.0000 C   0  0  0  0  0  0  0  0  0  0  0  0
    4.6637    1.6290    0.0000 N   0  0  0  0  0  0  0  0  0  0  0  0
    5.7179    2.6961    0.0000 N   0  0  0  0  0  0  0  0  0  0  0  0
    7.1691    2.3167    0.0000 C   0  0  0  0  0  0  0  0  0  0  0  0
    8.2233    3.3838    0.0000 O   0  0  0  0  0  0  0  0  0  0  0  0
    7.5661    0.8702    0.0000 C   0  0  0  0  0  0  0  0  0  0  0  0
    6.5120   -0.1969    0.0000 C   0  0  0  0  0  0  0  0  0  0  0  0
    6.9090   -1.6434    0.0000 C   0  0  0  0  0  0  0  0  0  0  0  0
    8.3602   -2.0227    0.0000 C   0  0  0  0  0  0  0  0  0  0  0  0
    9.4144   -0.9556    0.0000 C   0  0  0  0  0  0  0  0  0  0  0  0
    9.0174    0.4909    0.0000 C   0  0  0  0  0  0  0  0  0  0  0  0
    2.1583    0.9413    0.0000 C   0  0  0  0  0  0  0  0  0  0  0  0
    0.7071    1.3207    0.0000 C   0  0  0  0  0  0  0  0  0  0  0  0
   -0.3471    0.2536    0.0000 C   0  0  0  0  0  0  0  0  0  0  0  0
   -1.7983    0.6330    0.0000 F   0  0  0  0  0  0  0  0  0  0  0  0
   -2.4555   -1.8806    0.0000 N   0  0  0  0  0  0  0  0  0  0  0  0
   -3.4270   -3.0235    0.0000 C   0  0  0  0  0  0  0  0  0  0  0  0
   -4.9262   -2.9765    0.0000 C   0  0  0  0  0  0  0  0  0  0  0  0
   -5.8243   -1.7751    0.0000 C   0  0  0  0  0  0  0  0  0  0  0  0
   -5.4449   -0.3239    0.0000 N   0  0  0  0  0  0  0  0  0  0  0  0
   -6.5878    0.6476    0.0000 C   0  0  0  0  0  0  0  0  0  0  0  0
   -6.3179    2.1231    0.0000 C   0  0  0  0  0  0  0  0  0  0  0  0
   -7.4608    3.0946    0.0000 C   0  0  0  0  0  0  0  0  0  0  0  0
   -8.8736    2.5906    0.0000 C   0  0  0  0  0  0  0  0  0  0  0  0
   -9.1435    1.1151    0.0000 C   0  0  0  0  0  0  0  0  0  0  0  0
  -10.5563    0.6110    0.0000 F   0  0  0  0  0  0  0  0  0  0  0  0
   -8.0006    0.1436    0.0000 C   0  0  0  0  0  0  0  0  0  0  0  0
   -4.0737    0.2843    0.0000 C   0  0  0  0  0  0  0  0  0  0  0  0
   -2.7433   -0.4085    0.0000 C   0  0  0  0  0  0  0  0  0  0  0  0
  1  2  2  0
  2  3  1  0
  3  4  2  0
  4  5  1  0
  5  6  1  0
  6  7  1  0
  7  8  2  0
  8  9  1  0
  9 10  1  0
 10 11  2  0
 10 12  1  0
 12 13  2  0
 13 14  1  0
 14 15  1  0
 15 16  1  0
 16 17  1  0
  5 18  2  0
 18 19  1  0
 19 20  2  0
 20 21  1  0
  2 22  1  0
 22 23  1  0
 23 24  1  0
 24 25  1  0
 25 26  1  0
 26 27  1  0
 27 28  2  0
 28 29  1  0
 29 30  2  0
 30 31  1  0
 31 32  1  0
 31 33  2  0
 26 34  1  0
 34 35  1  0
 20  3  1  0
 35 22  1  0
 13  7  1  0
 33 27  1  0
 17 12  1  0
M  END
$$$$

     RDKit          2D

 23 25  0  0  0  0  0  0  0  0999 V2000
   -3.6492    3.7759    0.0000 C   0  0  0  0  0  0  0  0  0  0  0  0
   -2.9952    2.4260    0.0000 O   0  0  0  0  0  0  0  0  0  0  0  0
   -3.8373    1.1847    0.0000 C   0  0  0  0  0  0  0  0  0  0  0  0
   -5.3334    1.2933    0.0000 O   0  0  0  0  0  0  0  0  0  0  0  0
   -3.1834   -0.1653    0.0000 C   0  0  0  0  0  0  0  0  0  0  0  0
   -1.6873   -0.2739    0.0000 C   0  0  0  0  0  0  0  0  0  0  0  0
   -1.0333   -1.6238    0.0000 C   0  0  0  0  0  0  0  0  0  0  0  0
    0.4627   -1.7325    0.0000 C   0  0  0  0  0  0  0  0  0  0  0  0
    1.3048   -0.4911    0.0000 C   0  0  0  0  0  0  0  0  0  0  0  0
    0.6509    0.8588    0.0000 N   0  0  0  0  0  0  0  0  0  0  0  0
    1.4930    2.1001    0.0000 N   0  0  0  0  0  0  0  0  0  0  0  0
    2.9890    1.9915    0.0000 C   0  0  0  0  0  0  0  0  0  0  0  0
    3.8311    3.2328    0.0000 O   0  0  0  0  0  0  0  0  0  0  0  0
    3.6430    0.6416    0.0000 C   0  0  0  0  0  0  0  0  0  0  0  0
    2.8009   -0.5998    0.0000 C   0  0  0  0  0  0  0  0  0  0  0  0
    3.4548   -1.9497    0.0000 N   0  0  0  0  0  0  0  0  0  0  0  0
    4.9509   -2.0583    0.0000 C   0  0  0  0  0  0  0  0  0  0  0  0
    5.7930   -0.8170    0.0000 C   0  0  0  0  0  0  0  0  0  0  0  0
    5.1390    0.5329    0.0000 C   0  0  0  0  0  0  0  0  0  0  0  0
   -1.8754   -2.8652    0.0000 C   0  0  0  0  0  0  0  0  0  0  0  0
   -3.3715   -2.7565    0.0000 C   0  0  0  0  0  0  0  0  0  0  0  0
   -4.0255   -1.4066    0.0000 C   0  0  0  0  0  0  0  0  0  0  0  0
   -5.5215   -1.2980    0.0000 F   0  0  0  0  0  0  0  0  0  0  0  0
  1  2  1  0
  2  3  1  0
  3  4  2  0
  3  5  1  0
  5  6  2  0
  6  7  1  0
  7  8  1  0
  8  9  1  0
  9 10  2  0
 10 11  1  0
 11 12  1  0
 12 13  2  0
 12 14  1  0
 14 15  2  0
 15 16  1  0
 16 17  1  0
 17 18  1  0
 18 19  1  0
  7 20  2  0
 20 21  1  0
 21 22  2  0
 22 23  1  0
 22  5  1  0
 15  9  1  0
 19 14  1  0
M  END
$$$$

     RDKit          2D

 33 36  0  0  0  0  0  0  0  0999 V2000
   -7.4194    3.9234    0.0000 C   0  0  0  0  0  0  0  0  0  0  0  0
   -7.9230    2.5105    0.0000 O   0  0  0  0  0  0  0  0  0  0  0  0
   -6.9512    1.3679    0.0000 C   0  0  0  0  0  0  0  0  0  0  0  0
   -5.4757    1.6382    0.0000 C   0  0  0  0  0  0  0  0  0  0  0  0
   -4.5039    0.4955    0.0000 C   0  0  0  0  0  0  0  0  0  0  0  0
   -5.0076   -0.9174    0.0000 C   0  0  0  0  0  0  0  0  0  0  0  0
   -4.0358   -2.0600    0.0000 C   0  0  0  0  0  0  0  0  0  0  0  0
   -2.5603   -1.7897    0.0000 C   0  0  0  0  0  0  0  0  0  0  0  0
   -1.5885   -2.9323    0.0000 C   0  0  0  0  0  0  0  0  0  0  0  0
   -0.1131   -2.6620    0.0000 N   0  0  0  0  0  0  0  0  0  0  0  0
    0.8588   -3.8046    0.0000 C   0  0  0  0  0  0  0  0  0  0  0  0
    0.3551   -5.2176    0.0000 O   0  0  0  0  0  0  0  0  0  0  0  0
    2.3342   -3.5343    0.0000 C   0  0  0  0  0  0  0  0  0  0  0  0
    3.3060   -4.6770    0.0000 C   0  0  0  0  0  0  0  0  0  0  0  0
    4.7815   -4.4067    0.0000 C   0  0  0  0  0  0  0  0  0  0  0  0
    5.2851   -2.9937    0.0000 C   0  0  0  0  0  0  0  0  0  0  0  0
    4.3133   -1.8511    0.0000 C   0  0  0  0  0  0  0  0  0  0  0  0
    4.8169   -0.4382    0.0000 C   0  0  0  0  0  0  0  0  0  0  0  0
    3.8451    0.7044    0.0000 C   0  0  0  0  0  0  0  0  0  0  0  0
    2.3697    0.4341    0.0000 N   0  0  0  0  0  0  0  0  0  0  0  0
    1.3978    1.5767    0.0000 N   0  0  0  0  0  0  0  0  0  0  0  0
    1.9015    2.9897    0.0000 C   0  0  0  0  0  0  0  0  0  0  0  0
    0.9297    4.1323    0.0000 O   0  0  0  0  0  0  0  0  0  0  0  0
    3.3769    3.2600    0.0000 C   0  0  0  0  0  0  0  0  0  0  0  0
    4.3487    2.1173    0.0000 C   0  0  0  0  0  0  0  0  0  0  0  0
    5.8242    2.3876    0.0000 C   0  0  0  0  0  0  0  0  0  0  0  0
    6.3278    3.8006    0.0000 C   0  0  0  0  0  0  0  0  0  0  0  0
    5.3560    4.9432    0.0000 C   0  0  0  0  0  0  0  0  0  0  0  0
    3.8806    4.6729    0.0000 C   0  0  0  0  0  0  0  0  0  0  0  0
    2.8378   -2.1214    0.0000 C   0  0  0  0  0  0  0  0  0  0  0  0
   -6.4830   -1.1877    0.0000 C   0  0  0  0  0  0  0  0  0  0  0  0
   -7.4548   -0.0451    0.0000 C   0  0  0  0  0  0  0  0  0  0  0  0
   -8.9303   -0.3154    0.0000 N   0  0  0  0  0  0  0  0  0  0  0  0
  1  2  1  0
  2  3  1  0
  3  4  2  0
  4  5  1  0
  5  6  2  0
  6  7  1  0
  7  8  1  0
  8  9  1  0
  9 10  1  0
 10 11  1  0
 11 12  2  0
 11 13  1  0
 13 14  2  0
 14 15  1  0
 15 16  2  0
 16 17  1  0
 17 18  1  0
 18 19  1  0
 19 20  2  0
 20 21  1  0
 21 22  1  0
 22 23  2  0
 22 24  1  0
 24 25  2  0
 25 26  1  0
 26 27  1  0
 27 28  1  0
 28 29  1  0
 17 30  2  0
  6 31  1  0
 31 32  2  0
 32 33  1  0
 32  3  1  0
 30 13  1  0
 25 19  1  0
 29 24  1  0
M  END
$$$$

     RDKit          2D

 28 31  0  0  0  0  0  0  0  0999 V2000
    1.8172    1.2212    0.0000 O   0  0  0  0  0  0  0  0  0  0  0  0
    1.6023   -0.2634    0.0000 C   0  0  0  0  0  0  0  0  0  0  0  0
    2.7805   -1.1917    0.0000 N   0  0  0  0  0  0  0  0  0  0  0  0
    4.1736   -0.6356    0.0000 C   0  0  0  0  0  0  0  0  0  0  0  0
    5.3517   -1.5640    0.0000 C   0  0  0  0  0  0  0  0  0  0  0  0
    6.7448   -1.0078    0.0000 C   0  0  0  0  0  0  0  0  0  0  0  0
    6.9597    0.4767    0.0000 C   0  0  0  0  0  0  0  0  0  0  0  0
    5.7816    1.4051    0.0000 C   0  0  0  0  0  0  0  0  0  0  0  0
    4.3885    0.8489    0.0000 C   0  0  0  0  0  0  0  0  0  0  0  0
    3.2103    1.7773    0.0000 O   0  0  0  0  0  0  0  0  0  0  0  0
    0.2092   -0.8195    0.0000 C   0  0  0  0  0  0  0  0  0  0  0  0
    0.3076   -2.3163    0.0000 C   0  0  0  0  0  0  0  0  0  0  0  0
   -0.4925   -3.5851    0.0000 C   0  0  0  0  0  0  0  0  0  0  0  0
   -1.8856   -4.1412    0.0000 C   0  0  0  0  0  0  0  0  0  0  0  0
   -3.3395   -3.7723    0.0000 C   0  0  0  0  0  0  0  0  0  0  0  0
   -4.2989   -2.6193    0.0000 C   0  0  0  0  0  0  0  0  0  0  0  0
   -4.3974   -1.1225    0.0000 C   0  0  0  0  0  0  0  0  0  0  0  0
   -5.5404   -0.1511    0.0000 C   0  0  0  0  0  0  0  0  0  0  0  0
   -5.4935    1.3482    0.0000 C   0  0  0  0  0  0  0  0  0  0  0  0
   -4.2921    2.2463    0.0000 C   0  0  0  0  0  0  0  0  0  0  0  0
   -2.8409    1.8671    0.0000 C   0  0  0  0  0  0  0  0  0  0  0  0
   -2.2326    0.4960    0.0000 C   0  0  0  0  0  0  0  0  0  0  0  0
   -2.9253   -0.8345    0.0000 C   0  0  0  0  0  0  0  0  0  0  0  0
   -0.7410    0.3372    0.0000 C   0  0  0  0  0  0  0  0  0  0  0  0
    0.1423    1.5496    0.0000 C   0  0  0  0  0  0  0  0  0  0  0  0
   -0.4661    2.9207    0.0000 N   0  0  0  0  0  0  0  0  0  0  0  0
   -1.9576    3.0794    0.0000 C   0  0  0  0  0  0  0  0  0  0  0  0
   -2.5659    4.4506    0.0000 O   0  0  0  0  0  0  0  0  0  0  0  0
  1  2  2  0
  2  3  1  0
  3  4  1  0
  4  5  2  0
  5  6  1  0
  6  7  2  0
  7  8  1  0
  8  9  2  0
  9 10  1  0
  2 11  1  0
 11 12  2  0
 12 13  1  0
 13 14  2  0
 14 15  1  0
 15 16  2  0
 16 17  1  0
 17 18  1  0
 18 19  2  0
 19 20  1  0
 20 21  2  0
 21 22  1  0
 22 23  1  0
 22 24  2  0
 24 25  1  0
 25 26  1  0
 26 27  1  0
 27 28  2  0
  9  4  1  0
 24 11  1  0
 23 17  2  0
 27 21  1  0
M  END
$$$$

     RDKit          2D

 24 27  0  0  0  0  0  0  0  0999 V2000
    3.8393   -3.4102    0.0000 O   0  0  0  0  0  0  0  0  0  0  0  0
    3.0940   -2.1085    0.0000 C   0  0  0  0  0  0  0  0  0  0  0  0
    1.5941   -2.1030    0.0000 N   0  0  0  0  0  0  0  0  0  0  0  0
    0.8488   -0.8013    0.0000 N   0  0  0  0  0  0  0  0  0  0  0  0
    1.6035    0.4950    0.0000 C   0  0  0  0  0  0  0  0  0  0  0  0
    0.8582    1.7968    0.0000 C   0  0  0  0  0  0  0  0  0  0  0  0
   -0.6418    1.8022    0.0000 C   0  0  0  0  0  0  0  0  0  0  0  0
   -1.3871    3.1040    0.0000 C   0  0  0  0  0  0  0  0  0  0  0  0
   -2.8871    3.1094    0.0000 C   0  0  0  0  0  0  0  0  0  0  0  0
   -3.6418    1.8131    0.0000 C   0  0  0  0  0  0  0  0  0  0  0  0
   -5.1418    1.8185    0.0000 F   0  0  0  0  0  0  0  0  0  0  0  0
   -2.8965    0.5113    0.0000 C   0  0  0  0  0  0  0  0  0  0  0  0
   -3.6512   -0.7850    0.0000 N   0  0  0  0  0  0  0  0  0  0  0  0
   -3.0461   -2.1575    0.0000 C   0  0  0  0  0  0  0  0  0  0  0  0
   -4.1644   -3.1571    0.0000 C   0  0  0  0  0  0  0  0  0  0  0  0
   -5.4607   -2.4024    0.0000 C   0  0  0  0  0  0  0  0  0  0  0  0
   -5.1435   -0.9363    0.0000 C   0  0  0  0  0  0  0  0  0  0  0  0
   -1.3965    0.5059    0.0000 C   0  0  0  0  0  0  0  0  0  0  0  0
    3.1035    0.4896    0.0000 C   0  0  0  0  0  0  0  0  0  0  0  0
    3.8487   -0.8121    0.0000 C   0  0  0  0  0  0  0  0  0  0  0  0
    5.3487   -0.8176    0.0000 C   0  0  0  0  0  0  0  0  0  0  0  0
    6.1034    0.4787    0.0000 C   0  0  0  0  0  0  0  0  0  0  0  0
    5.3582    1.7805    0.0000 C   0  0  0  0  0  0  0  0  0  0  0  0
    3.8582    1.7859    0.0000 N   0  0  0  0  0  0  0  0  0  0  0  0
  1  2  2  0
  2  3  1  0
  3  4  1  0
  4  5  2  0
  5  6  1  0
  6  7  1  0
  7  8  2  0
  8  9  1  0
  9 10  2  0
 10 11  1  0
 10 12  1  0
 12 13  1  0
 13 14  1  0
 14 15  1  0
 15 16  1  0
 16 17  1  0
 12 18  2  0
  5 19  1  0
 19 20  2  0
 20 21  1  0
 21 22  1  0
 22 23  1  0
 23 24  1  0
 20  2  1  0
 18  7  1  0
 24 19  1  0
 17 13  1  0
M  END
$$$$

     RDKit          2D

 16 18  0  0  0  0  0  0  0  0999 V2000
   -3.3879   -1.9326    0.0000 O   0  0  0  0  0  0  0  0  0  0  0  0
   -1.9787   -1.4186    0.0000 C   0  0  0  0  0  0  0  0  0  0  0  0
   -0.9646   -2.5239    0.0000 N   0  0  0  0  0  0  0  0  0  0  0  0
    0.5340   -2.5883    0.0000 N   0  0  0  0  0  0  0  0  0  0  0  0
    1.6393   -1.5742    0.0000 C   0  0  0  0  0  0  0  0  0  0  0  0
    1.7037   -0.0756    0.0000 C   0  0  0  0  0  0  0  0  0  0  0  0
    0.6896    1.0297    0.0000 N   0  0  0  0  0  0  0  0  0  0  0  0
    2.1886    1.0830    0.0000 C   0  0  0  0  0  0  0  0  0  0  0  0
    3.0266    2.3271    0.0000 O   0  0  0  0  0  0  0  0  0  0  0  0
    2.7026   -0.3262    0.0000 C   0  0  0  0  0  0  0  0  0  0  0  0
    4.1448   -0.7387    0.0000 F   0  0  0  0  0  0  0  0  0  0  0  0
   -0.8090    1.0941    0.0000 C   0  0  0  0  0  0  0  0  0  0  0  0
   -1.9143    0.0800    0.0000 C   0  0  0  0  0  0  0  0  0  0  0  0
   -3.2203    0.8177    0.0000 C   0  0  0  0  0  0  0  0  0  0  0  0
   -2.9222    2.2878    0.0000 C   0  0  0  0  0  0  0  0  0  0  0  0
   -1.4320    2.4586    0.0000 C   0  0  0  0  0  0  0  0  0  0  0  0
  1  2  2  0
  2  3  1  0
  3  4  1  0
  4  5  2  0
  5  6  1  0
  6  7  1  0
  7  8  1  0
  8  9  2  0
  8 10  1  0
 10 11  1  0
  7 12  1  0
 12 13  2  0
 13 14  1  0
 14 15  1  0
 15 16  2  0
 13  2  1  0
 10  5  1  0
 16 12  1  0
M  END
$$$$

     RDKit          2D

 31 34  0  0  0  0  0  0  0  0999 V2000
   -2.5557   -3.4178    0.0000 O   0  0  0  0  0  0  0  0  0  0  0  0
   -1.3900   -2.4738    0.0000 C   0  0  0  0  0  0  0  0  0  0  0  0
   -1.6247   -0.9923    0.0000 N   0  0  0  0  0  0  0  0  0  0  0  0
   -3.0251   -0.4548    0.0000 C   0  0  0  0  0  0  0  0  0  0  0  0
   -3.2598    1.0268    0.0000 C   0  0  0  0  0  0  0  0  0  0  0  0
   -4.6602    1.5642    0.0000 C   0  0  0  0  0  0  0  0  0  0  0  0
   -4.8950    3.0458    0.0000 C   0  0  0  0  0  0  0  0  0  0  0  0
   -6.2953    3.5833    0.0000 C   0  0  0  0  0  0  0  0  0  0  0  0
   -7.4610    2.6392    0.0000 C   0  0  0  0  0  0  0  0  0  0  0  0
   -7.2263    1.1577    0.0000 C   0  0  0  0  0  0  0  0  0  0  0  0
   -5.8259    0.6202    0.0000 C   0  0  0  0  0  0  0  0  0  0  0  0
   -5.5912   -0.8613    0.0000 C   0  0  0  0  0  0  0  0  0  0  0  0
   -6.7569   -1.8053    0.0000 O   0  0  0  0  0  0  0  0  0  0  0  0
    0.0104   -3.0113    0.0000 C   0  0  0  0  0  0  0  0  0  0  0  0
    0.2451   -4.4928    0.0000 C   0  0  0  0  0  0  0  0  0  0  0  0
    1.6455   -5.0303    0.0000 C   0  0  0  0  0  0  0  0  0  0  0  0
    2.8112   -4.0863    0.0000 C   0  0  0  0  0  0  0  0  0  0  0  0
    2.5764   -2.6047    0.0000 C   0  0  0  0  0  0  0  0  0  0  0  0
    3.7421   -1.6607    0.0000 C   0  0  0  0  0  0  0  0  0  0  0  0
    3.5074   -0.1792    0.0000 C   0  0  0  0  0  0  0  0  0  0  0  0
    2.1070    0.3583    0.0000 N   0  0  0  0  0  0  0  0  0  0  0  0
    1.8723    1.8398    0.0000 N   0  0  0  0  0  0  0  0  0  0  0  0
    3.0380    2.7839    0.0000 C   0  0  0  0  0  0  0  0  0  0  0  0
    2.8033    4.2654    0.0000 O   0  0  0  0  0  0  0  0  0  0  0  0
    4.4384    2.2464    0.0000 C   0  0  0  0  0  0  0  0  0  0  0  0
    4.6731    0.7648    0.0000 C   0  0  0  0  0  0  0  0  0  0  0  0
    6.0735    0.2274    0.0000 C   0  0  0  0  0  0  0  0  0  0  0  0
    7.2392    1.1714    0.0000 C   0  0  0  0  0  0  0  0  0  0  0  0
    7.0044    2.6529    0.0000 C   0  0  0  0  0  0  0  0  0  0  0  0
    5.6041    3.1904    0.0000 C   0  0  0  0  0  0  0  0  0  0  0  0
    1.1761   -2.0672    0.0000 C   0  0  0  0  0  0  0  0  0  0  0  0
  1  2  2  0
  2  3  1  0
  3  4  1  0
  4  5  1  0
  5  6  1  0
  6  7  2  0
  7  8  1  0
  8  9  2  0
  9 10  1  0
 10 11  2  0
 11 12  1  0
 12 13  1  0
  2 14  1  0
 14 15  2  0
 15 16  1  0
 16 17  2  0
 17 18  1  0
 18 19  1  0
 19 20  1  0
 20 21  2  0
 21 22  1  0
 22 23  1  0
 23 24  2  0
 23 25  1  0
 25 26  2  0
 26 27  1  0
 27 28  1  0
 28 29  1  0
 29 30  1  0
 18 31  2  0
 11  6  1  0
 31 14  1  0
 26 20  1  0
 30 25  1  0
M  END
$$$$

     RDKit          2D

 19 21  0  0  0  0  0  0  0  0999 V2000
    3.5136   -2.9648    0.0000 O   0  0  0  0  0  0  0  0  0  0  0  0
    2.4581   -1.8990    0.0000 C   0  0  0  0  0  0  0  0  0  0  0  0
    1.0073   -2.2802    0.0000 N   0  0  0  0  0  0  0  0  0  0  0  0
   -0.0482   -1.2144    0.0000 N   0  0  0  0  0  0  0  0  0  0  0  0
    0.3470    0.2326    0.0000 C   0  0  0  0  0  0  0  0  0  0  0  0
   -0.7085    1.2983    0.0000 C   0  0  0  0  0  0  0  0  0  0  0  0
   -2.1592    0.9171    0.0000 C   0  0  0  0  0  0  0  0  0  0  0  0
   -3.2148    1.9829    0.0000 C   0  0  0  0  0  0  0  0  0  0  0  0
   -4.6655    1.6017    0.0000 C   0  0  0  0  0  0  0  0  0  0  0  0
   -5.0607    0.1547    0.0000 C   0  0  0  0  0  0  0  0  0  0  0  0
   -4.0052   -0.9111    0.0000 C   0  0  0  0  0  0  0  0  0  0  0  0
   -4.4005   -2.3581    0.0000 F   0  0  0  0  0  0  0  0  0  0  0  0
   -2.5545   -0.5299    0.0000 C   0  0  0  0  0  0  0  0  0  0  0  0
    1.7978    0.6138    0.0000 C   0  0  0  0  0  0  0  0  0  0  0  0
    2.8533   -0.4520    0.0000 C   0  0  0  0  0  0  0  0  0  0  0  0
    4.3040   -0.0708    0.0000 C   0  0  0  0  0  0  0  0  0  0  0  0
    4.6993    1.3762    0.0000 C   0  0  0  0  0  0  0  0  0  0  0  0
    3.6438    2.4420    0.0000 C   0  0  0  0  0  0  0  0  0  0  0  0
    2.1930    2.0608    0.0000 C   0  0  0  0  0  0  0  0  0  0  0  0
  1  2  2  0
  2  3  1  0
  3  4  1  0
  4  5  2  0
  5  6  1  0
  6  7  1  0
  7  8  2  0
  8  9  1  0
  9 10  2  0
 10 11  1  0
 11 12  1  0
 11 13  2  0
  5 14  1  0
 14 15  2  0
 15 16  1  0
 16 17  1  0
 17 18  1  0
 18 19  1  0
 15  2  1  0
 13  7  1  0
 19 14  1  0
M  END
$$$$

     RDKit          2D

 25 28  0  0  0  0  0  0  0  0999 V2000
    3.8523   -3.5041    0.0000 O   0  0  0  0  0  0  0  0  0  0  0  0
    3.1793   -2.1636    0.0000 C   0  0  0  0  0  0  0  0  0  0  0  0
    1.6818   -2.0761    0.0000 N   0  0  0  0  0  0  0  0  0  0  0  0
    1.0088   -0.7356    0.0000 N   0  0  0  0  0  0  0  0  0  0  0  0
    1.8333    0.5175    0.0000 C   0  0  0  0  0  0  0  0  0  0  0  0
    1.1603    1.8581    0.0000 C   0  0  0  0  0  0  0  0  0  0  0  0
   -0.3371    1.9455    0.0000 C   0  0  0  0  0  0  0  0  0  0  0  0
   -1.0101    3.2861    0.0000 C   0  0  0  0  0  0  0  0  0  0  0  0
   -2.5076    3.3735    0.0000 C   0  0  0  0  0  0  0  0  0  0  0  0
   -3.3320    2.1204    0.0000 C   0  0  0  0  0  0  0  0  0  0  0  0
   -4.8295    2.2079    0.0000 F   0  0  0  0  0  0  0  0  0  0  0  0
   -2.6591    0.7799    0.0000 C   0  0  0  0  0  0  0  0  0  0  0  0
   -3.4835   -0.4732    0.0000 N   0  0  0  0  0  0  0  0  0  0  0  0
   -4.9810   -0.3858    0.0000 C   0  0  0  0  0  0  0  0  0  0  0  0
   -5.8054   -1.6389    0.0000 C   0  0  0  0  0  0  0  0  0  0  0  0
   -5.1324   -2.9794    0.0000 C   0  0  0  0  0  0  0  0  0  0  0  0
   -3.6350   -3.0669    0.0000 C   0  0  0  0  0  0  0  0  0  0  0  0
   -2.8105   -1.8138    0.0000 C   0  0  0  0  0  0  0  0  0  0  0  0
   -1.1616    0.6924    0.0000 C   0  0  0  0  0  0  0  0  0  0  0  0
    3.3307    0.4301    0.0000 C   0  0  0  0  0  0  0  0  0  0  0  0
    4.0037   -0.9105    0.0000 C   0  0  0  0  0  0  0  0  0  0  0  0
    5.5012   -0.9979    0.0000 C   0  0  0  0  0  0  0  0  0  0  0  0
    6.3256    0.2552    0.0000 C   0  0  0  0  0  0  0  0  0  0  0  0
    5.6526    1.5957    0.0000 C   0  0  0  0  0  0  0  0  0  0  0  0
    4.1552    1.6832    0.0000 C   0  0  0  0  0  0  0  0  0  0  0  0
  1  2  2  0
  2  3  1  0
  3  4  1  0
  4  5  2  0
  5  6  1  0
  6  7  1  0
  7  8  2  0
  8  9  1  0
  9 10  2  0
 10 11  1  0
 10 12  1  0
 12 13  1  0
 13 14  1  0
 14 15  1  0
 15 16  1  0
 16 17  1  0
 17 18  1  0
 12 19  2  0
  5 20  1  0
 20 21  2  0
 21 22  1  0
 22 23  1  0
 23 24  1  0
 24 25  1  0
 21  2  1  0
 19  7  1  0
 25 20  1  0
 18 13  1  0
M  END
$$$$

     RDKit          2D

 30 33  0  0  0  0  0  0  0  0999 V2000
   -3.9584    3.9056    0.0000 C   0  0  0  0  0  0  0  0  0  0  0  0
   -2.8271    2.9207    0.0000 C   0  0  0  0  0  0  0  0  0  0  0  0
   -3.1144    1.4484    0.0000 C   0  0  0  0  0  0  0  0  0  0  0  0
   -1.9831    0.4635    0.0000 C   0  0  0  0  0  0  0  0  0  0  0  0
   -2.2704   -1.0087    0.0000 N   0  0  0  0  0  0  0  0  0  0  0  0
   -3.6891   -1.4960    0.0000 C   0  0  0  0  0  0  0  0  0  0  0  0
   -4.8204   -0.5110    0.0000 C   0  0  0  0  0  0  0  0  0  0  0  0
   -4.5331    0.9612    0.0000 C   0  0  0  0  0  0  0  0  0  0  0  0
   -5.6644    1.9461    0.0000 C   0  0  0  0  0  0  0  0  0  0  0  0
   -7.0830    1.4589    0.0000 C   0  0  0  0  0  0  0  0  0  0  0  0
   -7.3704   -0.0133    0.0000 C   0  0  0  0  0  0  0  0  0  0  0  0
   -6.2391   -0.9983    0.0000 C   0  0  0  0  0  0  0  0  0  0  0  0
   -1.1391   -1.9937    0.0000 C   0  0  0  0  0  0  0  0  0  0  0  0
   -1.4265   -3.4659    0.0000 C   0  0  0  0  0  0  0  0  0  0  0  0
   -0.2952   -4.4509    0.0000 C   0  0  0  0  0  0  0  0  0  0  0  0
    1.1235   -3.9636    0.0000 C   0  0  0  0  0  0  0  0  0  0  0  0
    1.4108   -2.4914    0.0000 C   0  0  0  0  0  0  0  0  0  0  0  0
    2.8295   -2.0041    0.0000 C   0  0  0  0  0  0  0  0  0  0  0  0
    3.1168   -0.5319    0.0000 C   0  0  0  0  0  0  0  0  0  0  0  0
    1.9855    0.4530    0.0000 N   0  0  0  0  0  0  0  0  0  0  0  0
    2.2729    1.9253    0.0000 N   0  0  0  0  0  0  0  0  0  0  0  0
    3.6915    2.4125    0.0000 C   0  0  0  0  0  0  0  0  0  0  0  0
    3.9789    3.8847    0.0000 O   0  0  0  0  0  0  0  0  0  0  0  0
    4.8228    1.4276    0.0000 C   0  0  0  0  0  0  0  0  0  0  0  0
    4.5355   -0.0447    0.0000 C   0  0  0  0  0  0  0  0  0  0  0  0
    5.6668   -1.0296    0.0000 C   0  0  0  0  0  0  0  0  0  0  0  0
    7.0854   -0.5424    0.0000 C   0  0  0  0  0  0  0  0  0  0  0  0
    7.3728    0.9299    0.0000 C   0  0  0  0  0  0  0  0  0  0  0  0
    6.2415    1.9148    0.0000 C   0  0  0  0  0  0  0  0  0  0  0  0
    0.2795   -1.5064    0.0000 C   0  0  0  0  0  0  0  0  0  0  0  0
  1  2  1  0
  2  3  1  0
  3  4  1  0
  4  5  1  0
  5  6  1  0
  6  7  1  0
  7  8  2  0
  8  9  1  0
  9 10  2  0
 10 11  1  0
 11 12  2  0
  5 13  1  0
 13 14  2  0
 14 15  1  0
 15 16  2  0
 16 17  1  0
 17 18  1  0
 18 19  1  0
 19 20  2  0
 20 21  1  0
 21 22  1  0
 22 23  2  0
 22 24  1  0
 24 25  2  0
 25 26  1  0
 26 27  1  0
 27 28  1  0
 28 29  1  0
 17 30  2  0
 12  7  1  0
 30 13  1  0
 25 19  1  0
 29 24  1  0
M  END
$$$$

     RDKit          2D

 35 39  0  0  0  0  0  0  0  0999 V2000
  -10.6949    2.4941    0.0000 C   0  0  0  0  0  0  0  0  0  0  0  0
  -10.5700    0.9993    0.0000 C   0  0  0  0  0  0  0  0  0  0  0  0
   -9.2131    0.3600    0.0000 N   0  0  0  0  0  0  0  0  0  0  0  0
   -7.9810    1.2156    0.0000 C   0  0  0  0  0  0  0  0  0  0  0  0
   -6.6240    0.5763    0.0000 C   0  0  0  0  0  0  0  0  0  0  0  0
   -6.4991   -0.9185    0.0000 C   0  0  0  0  0  0  0  0  0  0  0  0
   -5.1421   -1.5577    0.0000 C   0  0  0  0  0  0  0  0  0  0  0  0
   -5.0173   -3.0525    0.0000 O   0  0  0  0  0  0  0  0  0  0  0  0
   -3.9101   -0.7022    0.0000 N   0  0  0  0  0  0  0  0  0  0  0  0
   -3.2708    0.6548    0.0000 C   0  0  0  0  0  0  0  0  0  0  0  0
   -3.3957    2.1496    0.0000 O   0  0  0  0  0  0  0  0  0  0  0  0
   -2.4153   -0.5773    0.0000 C   0  0  0  0  0  0  0  0  0  0  0  0
   -1.0583   -1.2166    0.0000 C   0  0  0  0  0  0  0  0  0  0  0  0
   -0.9334   -2.7114    0.0000 O   0  0  0  0  0  0  0  0  0  0  0  0
    0.1738   -0.3610    0.0000 C   0  0  0  0  0  0  0  0  0  0  0  0
    1.5308   -1.0003    0.0000 C   0  0  0  0  0  0  0  0  0  0  0  0
    2.7628   -0.1447    0.0000 C   0  0  0  0  0  0  0  0  0  0  0  0
    4.1198   -0.7840    0.0000 C   0  0  0  0  0  0  0  0  0  0  0  0
    5.3519    0.0716    0.0000 C   0  0  0  0  0  0  0  0  0  0  0  0
    5.2270    1.5664    0.0000 N   0  0  0  0  0  0  0  0  0  0  0  0
    6.4591    2.4219    0.0000 N   0  0  0  0  0  0  0  0  0  0  0  0
    7.8161    1.7827    0.0000 C   0  0  0  0  0  0  0  0  0  0  0  0
    9.0482    2.6382    0.0000 O   0  0  0  0  0  0  0  0  0  0  0  0
    7.9410    0.2879    0.0000 C   0  0  0  0  0  0  0  0  0  0  0  0
    6.7089   -0.5677    0.0000 C   0  0  0  0  0  0  0  0  0  0  0  0
    6.8337   -2.0625    0.0000 C   0  0  0  0  0  0  0  0  0  0  0  0
    8.1907   -2.7017    0.0000 C   0  0  0  0  0  0  0  0  0  0  0  0
    9.4228   -1.8462    0.0000 C   0  0  0  0  0  0  0  0  0  0  0  0
    9.2979   -0.3514    0.0000 C   0  0  0  0  0  0  0  0  0  0  0  0
    2.6380    1.3501    0.0000 C   0  0  0  0  0  0  0  0  0  0  0  0
    1.2810    1.9893    0.0000 C   0  0  0  0  0  0  0  0  0  0  0  0
    0.0489    1.1338    0.0000 C   0  0  0  0  0  0  0  0  0  0  0  0
   -1.3081    1.7730    0.0000 F   0  0  0  0  0  0  0  0  0  0  0  0
   -7.7312   -1.7740    0.0000 C   0  0  0  0  0  0  0  0  0  0  0  0
   -9.0882   -1.1348    0.0000 C   0  0  0  0  0  0  0  0  0  0  0  0
  1  2  1  0
  2  3  1  0
  3  4  1  0
  4  5  1  0
  5  6  1  0
  6  7  1  0
  7  8  2  0
  7  9  1  0
  9 10  1  0
 10 11  2  0
 10 12  1  0
 12 13  1  0
 13 14  2  0
 13 15  1  0
 15 16  2  0
 16 17  1  0
 17 18  1  0
 18 19  1  0
 19 20  2  0
 20 21  1  0
 21 22  1  0
 22 23  2  0
 22 24  1  0
 24 25  2  0
 25 26  1  0
 26 27  1  0
 27 28  1  0
 28 29  1  0
 17 30  2  0
 30 31  1  0
 31 32  2  0
 32 33  1  0
  6 34  1  0
 34 35  1  0
 35  3  1  0
 12  9  1  0
 32 15  1  0
 25 19  1  0
 29 24  1  0
M  END
$$$$

     RDKit          2D

 30 33  0  0  0  0  0  0  0  0999 V2000
   -5.4478    4.3816    0.0000 C   0  0  0  0  0  0  0  0  0  0  0  0
   -5.0122    2.9463    0.0000 N   0  0  0  0  0  0  0  0  0  0  0  0
   -3.5513    2.6059    0.0000 C   0  0  0  0  0  0  0  0  0  0  0  0
   -3.1156    1.1706    0.0000 C   0  0  0  0  0  0  0  0  0  0  0  0
   -4.1409    0.0756    0.0000 N   0  0  0  0  0  0  0  0  0  0  0  0
   -3.7052   -1.3597    0.0000 C   0  0  0  0  0  0  0  0  0  0  0  0
   -4.7304   -2.4547    0.0000 O   0  0  0  0  0  0  0  0  0  0  0  0
   -2.2443   -1.7001    0.0000 C   0  0  0  0  0  0  0  0  0  0  0  0
   -1.2191   -0.6052    0.0000 O   0  0  0  0  0  0  0  0  0  0  0  0
   -1.8087   -3.1355    0.0000 N   0  0  0  0  0  0  0  0  0  0  0  0
   -0.3478   -3.4758    0.0000 C   0  0  0  0  0  0  0  0  0  0  0  0
    0.0878   -4.9112    0.0000 C   0  0  0  0  0  0  0  0  0  0  0  0
    1.5487   -5.2516    0.0000 C   0  0  0  0  0  0  0  0  0  0  0  0
    2.5739   -4.1566    0.0000 C   0  0  0  0  0  0  0  0  0  0  0  0
    2.1383   -2.7213    0.0000 C   0  0  0  0  0  0  0  0  0  0  0  0
    3.1635   -1.6263    0.0000 C   0  0  0  0  0  0  0  0  0  0  0  0
    2.7278   -0.1910    0.0000 C   0  0  0  0  0  0  0  0  0  0  0  0
    1.2670    0.1494    0.0000 N   0  0  0  0  0  0  0  0  0  0  0  0
    0.8313    1.5847    0.0000 N   0  0  0  0  0  0  0  0  0  0  0  0
    1.8565    2.6797    0.0000 C   0  0  0  0  0  0  0  0  0  0  0  0
    1.4209    4.1150    0.0000 O   0  0  0  0  0  0  0  0  0  0  0  0
    3.3174    2.3393    0.0000 C   0  0  0  0  0  0  0  0  0  0  0  0
    3.7530    0.9040    0.0000 C   0  0  0  0  0  0  0  0  0  0  0  0
    5.2139    0.5636    0.0000 C   0  0  0  0  0  0  0  0  0  0  0  0
    6.2391    1.6585    0.0000 C   0  0  0  0  0  0  0  0  0  0  0  0
    5.8035    3.0939    0.0000 C   0  0  0  0  0  0  0  0  0  0  0  0
    4.3426    3.4343    0.0000 C   0  0  0  0  0  0  0  0  0  0  0  0
    0.6774   -2.3809    0.0000 C   0  0  0  0  0  0  0  0  0  0  0  0
   -5.6017    0.4160    0.0000 C   0  0  0  0  0  0  0  0  0  0  0  0
   -6.0374    1.8513    0.0000 C   0  0  0  0  0  0  0  0  0  0  0  0
  1  2  1  0
  2  3  1  0
  3  4  1  0
  4  5  1  0
  5  6  1  0
  6  7  2  0
  6  8  1  0
  8  9  2  0
  8 10  1  0
 10 11  1  0
 11 12  2  0
 12 13  1  0
 13 14  2  0
 14 15  1  0
 15 16  1  0
 16 17  1  0
 17 18  2  0
 18 19  1  0
 19 20  1  0
 20 21  2  0
 20 22  1  0
 22 23  2  0
 23 24  1  0
 24 25  1  0
 25 26  1  0
 26 27  1  0
 15 28  2  0
  5 29  1  0
 29 30  1  0
 30  2  1  0
 28 11  1  0
 23 17  1  0
 27 22  1  0
M  END
$$$$

     RDKit          2D

 34 38  0  0  0  0  0  0  0  0999 V2000
   -0.9421   -3.6824    0.0000 O   0  0  0  0  0  0  0  0  0  0  0  0
   -1.3295   -2.2333    0.0000 C   0  0  0  0  0  0  0  0  0  0  0  0
   -0.2683   -1.1732    0.0000 C   0  0  0  0  0  0  0  0  0  0  0  0
    1.1804   -1.5622    0.0000 C   0  0  0  0  0  0  0  0  0  0  0  0
    2.2416   -0.5021    0.0000 C   0  0  0  0  0  0  0  0  0  0  0  0
    3.6903   -0.8910    0.0000 C   0  0  0  0  0  0  0  0  0  0  0  0
    4.7515    0.1691    0.0000 C   0  0  0  0  0  0  0  0  0  0  0  0
    4.3640    1.6181    0.0000 N   0  0  0  0  0  0  0  0  0  0  0  0
    5.4252    2.6783    0.0000 N   0  0  0  0  0  0  0  0  0  0  0  0
    6.8739    2.2893    0.0000 C   0  0  0  0  0  0  0  0  0  0  0  0
    7.9351    3.3494    0.0000 O   0  0  0  0  0  0  0  0  0  0  0  0
    7.2614    0.8402    0.0000 C   0  0  0  0  0  0  0  0  0  0  0  0
    6.2002   -0.2199    0.0000 C   0  0  0  0  0  0  0  0  0  0  0  0
    6.5876   -1.6690    0.0000 N   0  0  0  0  0  0  0  0  0  0  0  0
    8.0363   -2.0580    0.0000 C   0  0  0  0  0  0  0  0  0  0  0  0
    9.0975   -0.9979    0.0000 C   0  0  0  0  0  0  0  0  0  0  0  0
    8.7101    0.4512    0.0000 C   0  0  0  0  0  0  0  0  0  0  0  0
    1.8541    0.9470    0.0000 C   0  0  0  0  0  0  0  0  0  0  0  0
    0.4054    1.3360    0.0000 C   0  0  0  0  0  0  0  0  0  0  0  0
   -0.6558    0.2759    0.0000 C   0  0  0  0  0  0  0  0  0  0  0  0
   -2.1045    0.6649    0.0000 F   0  0  0  0  0  0  0  0  0  0  0  0
   -2.7782   -1.8443    0.0000 N   0  0  0  0  0  0  0  0  0  0  0  0
   -3.7573   -2.9807    0.0000 C   0  0  0  0  0  0  0  0  0  0  0  0
   -5.2562   -2.9238    0.0000 C   0  0  0  0  0  0  0  0  0  0  0  0
   -6.1463   -1.7165    0.0000 C   0  0  0  0  0  0  0  0  0  0  0  0
   -5.7573   -0.2678    0.0000 N   0  0  0  0  0  0  0  0  0  0  0  0
   -6.8937    0.7112    0.0000 C   0  0  0  0  0  0  0  0  0  0  0  0
   -6.6141    2.1849    0.0000 C   0  0  0  0  0  0  0  0  0  0  0  0
   -7.7505    3.1640    0.0000 C   0  0  0  0  0  0  0  0  0  0  0  0
   -9.1666    2.6693    0.0000 C   0  0  0  0  0  0  0  0  0  0  0  0
   -9.4462    1.1956    0.0000 N   0  0  0  0  0  0  0  0  0  0  0  0
   -8.3098    0.2166    0.0000 N   0  0  0  0  0  0  0  0  0  0  0  0
   -4.3821    0.3313    0.0000 C   0  0  0  0  0  0  0  0  0  0  0  0
   -3.0563   -0.3703    0.0000 C   0  0  0  0  0  0  0  0  0  0  0  0
  1  2  2  0
  2  3  1  0
  3  4  2  0
  4  5  1  0
  5  6  1  0
  6  7  1  0
  7  8  2  0
  8  9  1  0
  9 10  1  0
 10 11  2  0
 10 12  1  0
 12 13  2  0
 13 14  1  0
 14 15  1  0
 15 16  1  0
 16 17  1  0
  5 18  2  0
 18 19  1  0
 19 20  2  0
 20 21  1  0
  2 22  1  0
 22 23  1  0
 23 24  1  0
 24 25  1  0
 25 26  1  0
 26 27  1  0
 27 28  2  0
 28 29  1  0
 29 30  2  0
 30 31  1  0
 31 32  2  0
 26 33  1  0
 33 34  1  0
 20  3  1  0
 34 22  1  0
 13  7  1  0
 32 27  1  0
 17 12  1  0
M  END
$$$$

     RDKit          2D

 34 38  0  0  0  0  0  0  0  0999 V2000
   -1.0139   -3.2105    0.0000 O   0  0  0  0  0  0  0  0  0  0  0  0
   -1.2607   -1.7310    0.0000 C   0  0  0  0  0  0  0  0  0  0  0  0
   -0.1027   -0.7775    0.0000 C   0  0  0  0  0  0  0  0  0  0  0  0
    1.3020   -1.3036    0.0000 C   0  0  0  0  0  0  0  0  0  0  0  0
    2.4599   -0.3501    0.0000 C   0  0  0  0  0  0  0  0  0  0  0  0
    3.8647   -0.8762    0.0000 C   0  0  0  0  0  0  0  0  0  0  0  0
    5.0226    0.0773    0.0000 C   0  0  0  0  0  0  0  0  0  0  0  0
    4.7759    1.5569    0.0000 N   0  0  0  0  0  0  0  0  0  0  0  0
    5.9338    2.5104    0.0000 N   0  0  0  0  0  0  0  0  0  0  0  0
    7.3385    1.9843    0.0000 C   0  0  0  0  0  0  0  0  0  0  0  0
    8.4965    2.9378    0.0000 O   0  0  0  0  0  0  0  0  0  0  0  0
    7.5853    0.5048    0.0000 C   0  0  0  0  0  0  0  0  0  0  0  0
    6.4273   -0.4487    0.0000 C   0  0  0  0  0  0  0  0  0  0  0  0
    6.6741   -1.9283    0.0000 N   0  0  0  0  0  0  0  0  0  0  0  0
    8.0788   -2.4544    0.0000 C   0  0  0  0  0  0  0  0  0  0  0  0
    9.2368   -1.5009    0.0000 C   0  0  0  0  0  0  0  0  0  0  0  0
    8.9900   -0.0213    0.0000 C   0  0  0  0  0  0  0  0  0  0  0  0
    2.2132    1.1295    0.0000 C   0  0  0  0  0  0  0  0  0  0  0  0
    0.8085    1.6556    0.0000 C   0  0  0  0  0  0  0  0  0  0  0  0
   -0.3495    0.7021    0.0000 C   0  0  0  0  0  0  0  0  0  0  0  0
   -1.7542    1.2281    0.0000 F   0  0  0  0  0  0  0  0  0  0  0  0
   -2.6654   -1.2049    0.0000 N   0  0  0  0  0  0  0  0  0  0  0  0
   -2.9122    0.2747    0.0000 C   0  0  0  0  0  0  0  0  0  0  0  0
   -4.3169    0.8007    0.0000 C   0  0  0  0  0  0  0  0  0  0  0  0
   -5.4749   -0.1528    0.0000 N   0  0  0  0  0  0  0  0  0  0  0  0
   -6.8796    0.3733    0.0000 C   0  0  0  0  0  0  0  0  0  0  0  0
   -7.1264    1.8529    0.0000 C   0  0  0  0  0  0  0  0  0  0  0  0
   -8.5311    2.3789    0.0000 C   0  0  0  0  0  0  0  0  0  0  0  0
   -9.6890    1.4255    0.0000 C   0  0  0  0  0  0  0  0  0  0  0  0
   -9.4423   -0.0541    0.0000 C   0  0  0  0  0  0  0  0  0  0  0  0
  -10.6002   -1.0076    0.0000 F   0  0  0  0  0  0  0  0  0  0  0  0
   -8.0375   -0.5802    0.0000 C   0  0  0  0  0  0  0  0  0  0  0  0
   -5.2281   -1.6323    0.0000 C   0  0  0  0  0  0  0  0  0  0  0  0
   -3.8234   -2.1584    0.0000 C   0  0  0  0  0  0  0  0  0  0  0  0
  1  2  2  0
  2  3  1  0
  3  4  2  0
  4  5  1  0
  5  6  1  0
  6  7  1  0
  7  8  2  0
  8  9  1  0
  9 10  1  0
 10 11  2  0
 10 12  1  0
 12 13  2  0
 13 14  1  0
 14 15  1  0
 15 16  1  0
 16 17  1  0
  5 18  2  0
 18 19  1  0
 19 20  2  0
 20 21  1  0
  2 22  1  0
 22 23  1  0
 23 24  1  0
 24 25  1  0
 25 26  1  0
 26 27  2  0
 27 28  1  0
 28 29  2  0
 29 30  1  0
 30 31  1  0
 30 32  2  0
 25 33  1  0
 33 34  1  0
 20  3  1  0
 34 22  1  0
 13  7  1  0
 32 26  1  0
 17 12  1  0
M  END
$$$$

     RDKit          2D

 35 39  0  0  0  0  0  0  0  0999 V2000
   -7.9167   -1.8704    0.0000 O   0  0  0  0  0  0  0  0  0  0  0  0
   -6.8664   -0.7995    0.0000 C   0  0  0  0  0  0  0  0  0  0  0  0
   -7.2687    0.6456    0.0000 C   0  0  0  0  0  0  0  0  0  0  0  0
   -6.2184    1.7165    0.0000 C   0  0  0  0  0  0  0  0  0  0  0  0
   -6.6207    3.1615    0.0000 C   0  0  0  0  0  0  0  0  0  0  0  0
   -8.0733    3.5356    0.0000 C   0  0  0  0  0  0  0  0  0  0  0  0
   -9.1236    2.4647    0.0000 N   0  0  0  0  0  0  0  0  0  0  0  0
   -8.7213    1.0197    0.0000 C   0  0  0  0  0  0  0  0  0  0  0  0
   -5.4138   -1.1736    0.0000 N   0  0  0  0  0  0  0  0  0  0  0  0
   -5.0115   -2.6186    0.0000 C   0  0  0  0  0  0  0  0  0  0  0  0
   -3.5589   -2.9927    0.0000 C   0  0  0  0  0  0  0  0  0  0  0  0
   -2.5086   -1.9218    0.0000 N   0  0  0  0  0  0  0  0  0  0  0  0
   -1.0560   -2.2959    0.0000 C   0  0  0  0  0  0  0  0  0  0  0  0
   -0.6537   -3.7410    0.0000 O   0  0  0  0  0  0  0  0  0  0  0  0
   -0.0057   -1.2250    0.0000 C   0  0  0  0  0  0  0  0  0  0  0  0
    1.4469   -1.5991    0.0000 C   0  0  0  0  0  0  0  0  0  0  0  0
    2.4972   -0.5282    0.0000 C   0  0  0  0  0  0  0  0  0  0  0  0
    3.9498   -0.9023    0.0000 C   0  0  0  0  0  0  0  0  0  0  0  0
    5.0001    0.1687    0.0000 C   0  0  0  0  0  0  0  0  0  0  0  0
    4.5978    1.6137    0.0000 N   0  0  0  0  0  0  0  0  0  0  0  0
    5.6480    2.6846    0.0000 N   0  0  0  0  0  0  0  0  0  0  0  0
    7.1006    2.3105    0.0000 C   0  0  0  0  0  0  0  0  0  0  0  0
    8.1509    3.3815    0.0000 O   0  0  0  0  0  0  0  0  0  0  0  0
    7.5030    0.8655    0.0000 C   0  0  0  0  0  0  0  0  0  0  0  0
    6.4527   -0.2054    0.0000 C   0  0  0  0  0  0  0  0  0  0  0  0
    6.8550   -1.6505    0.0000 N   0  0  0  0  0  0  0  0  0  0  0  0
    8.3076   -2.0246    0.0000 C   0  0  0  0  0  0  0  0  0  0  0  0
    9.3579   -0.9537    0.0000 C   0  0  0  0  0  0  0  0  0  0  0  0
    8.9556    0.4914    0.0000 C   0  0  0  0  0  0  0  0  0  0  0  0
    2.0949    0.9169    0.0000 C   0  0  0  0  0  0  0  0  0  0  0  0
    0.6423    1.2910    0.0000 C   0  0  0  0  0  0  0  0  0  0  0  0
   -0.4080    0.2201    0.0000 C   0  0  0  0  0  0  0  0  0  0  0  0
   -1.8606    0.5942    0.0000 F   0  0  0  0  0  0  0  0  0  0  0  0
   -2.9109   -0.4768    0.0000 C   0  0  0  0  0  0  0  0  0  0  0  0
   -4.3635   -0.1027    0.0000 C   0  0  0  0  0  0  0  0  0  0  0  0
  1  2  2  0
  2  3  1  0
  3  4  2  0
  4  5  1  0
  5  6  2  0
  6  7  1  0
  7  8  2  0
  2  9  1  0
  9 10  1  0
 10 11  1  0
 11 12  1  0
 12 13  1  0
 13 14  2  0
 13 15  1  0
 15 16  2  0
 16 17  1  0
 17 18  1  0
 18 19  1  0
 19 20  2  0
 20 21  1  0
 21 22  1  0
 22 23  2  0
 22 24  1  0
 24 25  2  0
 25 26  1  0
 26 27  1  0
 27 28  1  0
 28 29  1  0
 17 30  2  0
 30 31  1  0
 31 32  2  0
 32 33  1  0
 12 34  1  0
 34 35  1  0
  8  3  1  0
 35  9  1  0
 32 15  1  0
 25 19  1  0
 29 24  1  0
M  END
$$$$

     RDKit          2D

 22 24  0  0  0  0  0  0  0  0999 V2000
   -4.9151   -3.3341    0.0000 C   0  0  0  0  0  0  0  0  0  0  0  0
   -4.6938   -1.8505    0.0000 O   0  0  0  0  0  0  0  0  0  0  0  0
   -3.2984   -1.3004    0.0000 C   0  0  0  0  0  0  0  0  0  0  0  0
   -2.1242   -2.2338    0.0000 O   0  0  0  0  0  0  0  0  0  0  0  0
   -3.0771    0.1832    0.0000 C   0  0  0  0  0  0  0  0  0  0  0  0
   -4.2513    1.1166    0.0000 N   0  0  0  0  0  0  0  0  0  0  0  0
   -4.0300    2.6002    0.0000 C   0  0  0  0  0  0  0  0  0  0  0  0
   -2.6345    3.1504    0.0000 C   0  0  0  0  0  0  0  0  0  0  0  0
   -1.4603    2.2170    0.0000 C   0  0  0  0  0  0  0  0  0  0  0  0
   -1.6816    0.7334    0.0000 C   0  0  0  0  0  0  0  0  0  0  0  0
   -0.5074   -0.2001    0.0000 C   0  0  0  0  0  0  0  0  0  0  0  0
    0.8880    0.3501    0.0000 C   0  0  0  0  0  0  0  0  0  0  0  0
    1.1093    1.8337    0.0000 N   0  0  0  0  0  0  0  0  0  0  0  0
    2.5048    2.3839    0.0000 N   0  0  0  0  0  0  0  0  0  0  0  0
    3.6790    1.4504    0.0000 C   0  0  0  0  0  0  0  0  0  0  0  0
    5.0744    2.0006    0.0000 O   0  0  0  0  0  0  0  0  0  0  0  0
    3.4577   -0.0332    0.0000 C   0  0  0  0  0  0  0  0  0  0  0  0
    2.0622   -0.5833    0.0000 C   0  0  0  0  0  0  0  0  0  0  0  0
    1.8409   -2.0669    0.0000 C   0  0  0  0  0  0  0  0  0  0  0  0
    3.0151   -3.0003    0.0000 C   0  0  0  0  0  0  0  0  0  0  0  0
    4.4106   -2.4502    0.0000 C   0  0  0  0  0  0  0  0  0  0  0  0
    4.6319   -0.9666    0.0000 C   0  0  0  0  0  0  0  0  0  0  0  0
  1  2  1  0
  2  3  1  0
  3  4  2  0
  3  5  1  0
  5  6  2  0
  6  7  1  0
  7  8  2  0
  8  9  1  0
  9 10  2  0
 10 11  1  0
 11 12  1  0
 12 13  2  0
 13 14  1  0
 14 15  1  0
 15 16  2  0
 15 17  1  0
 17 18  2  0
 18 19  1  0
 19 20  1  0
 20 21  1  0
 21 22  1  0
 10  5  1  0
 18 12  1  0
 22 17  1  0
M  END
$$$$

     RDKit          2D

 32 36  0  0  0  0  0  0  0  0999 V2000
   -8.1105   -3.0967    0.0000 N   0  0  0  0  0  0  0  0  0  0  0  0
   -6.7953   -2.3754    0.0000 C   0  0  0  0  0  0  0  0  0  0  0  0
   -5.5130   -3.1537    0.0000 O   0  0  0  0  0  0  0  0  0  0  0  0
   -6.7624   -0.8757    0.0000 C   0  0  0  0  0  0  0  0  0  0  0  0
   -8.0447   -0.0974    0.0000 C   0  0  0  0  0  0  0  0  0  0  0  0
   -8.0118    1.4022    0.0000 C   0  0  0  0  0  0  0  0  0  0  0  0
   -6.6967    2.1236    0.0000 C   0  0  0  0  0  0  0  0  0  0  0  0
   -5.4144    1.3453    0.0000 C   0  0  0  0  0  0  0  0  0  0  0  0
   -3.9780    1.7774    0.0000 N   0  0  0  0  0  0  0  0  0  0  0  0
   -3.1231    0.5448    0.0000 C   0  0  0  0  0  0  0  0  0  0  0  0
   -1.6235    0.5119    0.0000 C   0  0  0  0  0  0  0  0  0  0  0  0
   -0.9432    1.8488    0.0000 C   0  0  0  0  0  0  0  0  0  0  0  0
   -1.8525    3.0418    0.0000 F   0  0  0  0  0  0  0  0  0  0  0  0
    0.5262    2.1504    0.0000 C   0  0  0  0  0  0  0  0  0  0  0  0
    1.6781    1.1897    0.0000 C   0  0  0  0  0  0  0  0  0  0  0  0
    1.6453   -0.3099    0.0000 C   0  0  0  0  0  0  0  0  0  0  0  0
    2.9821   -0.9902    0.0000 C   0  0  0  0  0  0  0  0  0  0  0  0
    4.2397   -0.1726    0.0000 C   0  0  0  0  0  0  0  0  0  0  0  0
    4.1604    1.3253    0.0000 N   0  0  0  0  0  0  0  0  0  0  0  0
    5.4180    2.1429    0.0000 N   0  0  0  0  0  0  0  0  0  0  0  0
    6.7549    1.4626    0.0000 C   0  0  0  0  0  0  0  0  0  0  0  0
    8.0125    2.2802    0.0000 O   0  0  0  0  0  0  0  0  0  0  0  0
    6.8341   -0.0353    0.0000 C   0  0  0  0  0  0  0  0  0  0  0  0
    5.5766   -0.8529    0.0000 C   0  0  0  0  0  0  0  0  0  0  0  0
    5.6558   -2.3508    0.0000 N   0  0  0  0  0  0  0  0  0  0  0  0
    6.9927   -3.0311    0.0000 C   0  0  0  0  0  0  0  0  0  0  0  0
    8.2503   -2.2135    0.0000 C   0  0  0  0  0  0  0  0  0  0  0  0
    8.1710   -0.7156    0.0000 C   0  0  0  0  0  0  0  0  0  0  0  0
    0.4523   -1.2192    0.0000 C   0  0  0  0  0  0  0  0  0  0  0  0
   -1.0024   -0.8535    0.0000 O   0  0  0  0  0  0  0  0  0  0  0  0
   -4.0312   -0.6491    0.0000 N   0  0  0  0  0  0  0  0  0  0  0  0
   -5.4473   -0.1544    0.0000 C   0  0  0  0  0  0  0  0  0  0  0  0
  1  2  1  0
  2  3  2  0
  2  4  1  0
  4  5  2  0
  5  6  1  0
  6  7  2  0
  7  8  1  0
  8  9  1  0
  9 10  1  0
 10 11  1  0
 11 12  2  0
 12 13  1  0
 12 14  1  0
 14 15  2  0
 15 16  1  0
 16 17  1  0
 17 18  1  0
 18 19  2  0
 19 20  1  0
 20 21  1  0
 21 22  2  0
 21 23  1  0
 23 24  2  0
 24 25  1  0
 25 26  1  0
 26 27  1  0
 27 28  1  0
 16 29  2  0
 29 30  1  0
 10 31  2  0
 31 32  1  0
 32  4  1  0
 32  8  2  0
 30 11  1  0
 24 18  1  0
 28 23  1  0
M  END
$$$$

     RDKit          2D

 25 28  0  0  0  0  0  0  0  0999 V2000
    3.8523   -3.5041    0.0000 O   0  0  0  0  0  0  0  0  0  0  0  0
    3.1793   -2.1636    0.0000 C   0  0  0  0  0  0  0  0  0  0  0  0
    1.6818   -2.0761    0.0000 N   0  0  0  0  0  0  0  0  0  0  0  0
    1.0088   -0.7356    0.0000 N   0  0  0  0  0  0  0  0  0  0  0  0
    1.8333    0.5175    0.0000 C   0  0  0  0  0  0  0  0  0  0  0  0
    1.1603    1.8581    0.0000 C   0  0  0  0  0  0  0  0  0  0  0  0
   -0.3371    1.9455    0.0000 C   0  0  0  0  0  0  0  0  0  0  0  0
   -1.0101    3.2861    0.0000 C   0  0  0  0  0  0  0  0  0  0  0  0
   -2.5076    3.3735    0.0000 C   0  0  0  0  0  0  0  0  0  0  0  0
   -3.3320    2.1204    0.0000 C   0  0  0  0  0  0  0  0  0  0  0  0
   -4.8295    2.2079    0.0000 F   0  0  0  0  0  0  0  0  0  0  0  0
   -2.6591    0.7799    0.0000 C   0  0  0  0  0  0  0  0  0  0  0  0
   -3.4835   -0.4732    0.0000 N   0  0  0  0  0  0  0  0  0  0  0  0
   -4.9810   -0.3858    0.0000 C   0  0  0  0  0  0  0  0  0  0  0  0
   -5.8054   -1.6389    0.0000 C   0  0  0  0  0  0  0  0  0  0  0  0
   -5.1324   -2.9794    0.0000 O   0  0  0  0  0  0  0  0  0  0  0  0
   -3.6350   -3.0669    0.0000 C   0  0  0  0  0  0  0  0  0  0  0  0
   -2.8105   -1.8138    0.0000 C   0  0  0  0  0  0  0  0  0  0  0  0
   -1.1616    0.6924    0.0000 C   0  0  0  0  0  0  0  0  0  0  0  0
    3.3307    0.4301    0.0000 C   0  0  0  0  0  0  0  0  0  0  0  0
    4.0037   -0.9105    0.0000 C   0  0  0  0  0  0  0  0  0  0  0  0
    5.5012   -0.9979    0.0000 C   0  0  0  0  0  0  0  0  0  0  0  0
    6.3256    0.2552    0.0000 C   0  0  0  0  0  0  0  0  0  0  0  0
    5.6526    1.5957    0.0000 C   0  0  0  0  0  0  0  0  0  0  0  0
    4.1552    1.6832    0.0000 N   0  0  0  0  0  0  0  0  0  0  0  0
  1  2  2  0
  2  3  1  0
  3  4  1  0
  4  5  2  0
  5  6  1  0
  6  7  1  0
  7  8  2  0
  8  9  1  0
  9 10  2  0
 10 11  1  0
 10 12  1  0
 12 13  1  0
 13 14  1  0
 14 15  1  0
 15 16  1  0
 16 17  1  0
 17 18  1  0
 12 19  2  0
  5 20  1  0
 20 21  2  0
 21 22  1  0
 22 23  1  0
 23 24  1  0
 24 25  1  0
 21  2  1  0
 19  7  1  0
 25 20  1  0
 18 13  1  0
M  END
$$$$

     RDKit          2D

 18 20  0  0  0  0  0  0  0  0999 V2000
   -2.3448   -3.8398    0.0000 C   0  0  0  0  0  0  0  0  0  0  0  0
   -1.8833   -2.4125    0.0000 C   0  0  0  0  0  0  0  0  0  0  0  0
   -2.8885   -1.2992    0.0000 N   0  0  0  0  0  0  0  0  0  0  0  0
   -4.3553   -1.6131    0.0000 C   0  0  0  0  0  0  0  0  0  0  0  0
   -2.4269    0.1280    0.0000 C   0  0  0  0  0  0  0  0  0  0  0  0
   -3.4321    1.2414    0.0000 C   0  0  0  0  0  0  0  0  0  0  0  0
   -2.9706    2.6686    0.0000 N   0  0  0  0  0  0  0  0  0  0  0  0
   -1.5038    2.9824    0.0000 C   0  0  0  0  0  0  0  0  0  0  0  0
   -0.4986    1.8691    0.0000 C   0  0  0  0  0  0  0  0  0  0  0  0
    1.0014    1.8712    0.0000 N   0  0  0  0  0  0  0  0  0  0  0  0
    1.4669    0.4452    0.0000 C   0  0  0  0  0  0  0  0  0  0  0  0
    2.8941   -0.0164    0.0000 C   0  0  0  0  0  0  0  0  0  0  0  0
    4.1065    0.8670    0.0000 N   0  0  0  0  0  0  0  0  0  0  0  0
    5.3212   -0.0130    0.0000 C   0  0  0  0  0  0  0  0  0  0  0  0
    4.8596   -1.4403    0.0000 C   0  0  0  0  0  0  0  0  0  0  0  0
    3.3596   -1.4423    0.0000 S   0  0  0  0  0  0  0  0  0  0  0  0
    0.2546   -0.4381    0.0000 N   0  0  0  0  0  0  0  0  0  0  0  0
   -0.9601    0.4419    0.0000 C   0  0  0  0  0  0  0  0  0  0  0  0
  1  2  1  0
  2  3  1  0
  3  4  1  0
  3  5  1  0
  5  6  2  0
  6  7  1  0
  7  8  2  0
  8  9  1  0
  9 10  1  0
 10 11  1  0
 11 12  1  0
 12 13  1  0
 13 14  1  0
 14 15  1  0
 15 16  1  0
 11 17  2  0
 17 18  1  0
 18  5  1  0
 18  9  2  0
 16 12  1  0
M  END
$$$$

     RDKit          2D

 26 29  0  0  0  0  0  0  0  0999 V2000
   -3.7885   -2.7257    0.0000 O   0  0  0  0  0  0  0  0  0  0  0  0
   -3.9023   -1.2300    0.0000 C   0  0  0  0  0  0  0  0  0  0  0  0
   -2.6639   -0.3836    0.0000 C   0  0  0  0  0  0  0  0  0  0  0  0
   -1.3117   -1.0329    0.0000 C   0  0  0  0  0  0  0  0  0  0  0  0
   -0.0733   -0.1865    0.0000 C   0  0  0  0  0  0  0  0  0  0  0  0
    1.2789   -0.8358    0.0000 C   0  0  0  0  0  0  0  0  0  0  0  0
    2.5173    0.0106    0.0000 C   0  0  0  0  0  0  0  0  0  0  0  0
    2.4034    1.5063    0.0000 N   0  0  0  0  0  0  0  0  0  0  0  0
    3.6418    2.3527    0.0000 N   0  0  0  0  0  0  0  0  0  0  0  0
    4.9940    1.7035    0.0000 C   0  0  0  0  0  0  0  0  0  0  0  0
    6.2324    2.5499    0.0000 O   0  0  0  0  0  0  0  0  0  0  0  0
    5.1078    0.2078    0.0000 C   0  0  0  0  0  0  0  0  0  0  0  0
    3.8695   -0.6386    0.0000 C   0  0  0  0  0  0  0  0  0  0  0  0
    3.9833   -2.1343    0.0000 N   0  0  0  0  0  0  0  0  0  0  0  0
    5.3355   -2.7836    0.0000 C   0  0  0  0  0  0  0  0  0  0  0  0
    6.5739   -1.9372    0.0000 C   0  0  0  0  0  0  0  0  0  0  0  0
    6.4600   -0.4415    0.0000 C   0  0  0  0  0  0  0  0  0  0  0  0
   -0.1871    1.3092    0.0000 C   0  0  0  0  0  0  0  0  0  0  0  0
   -1.5393    1.9585    0.0000 C   0  0  0  0  0  0  0  0  0  0  0  0
   -2.7777    1.1121    0.0000 C   0  0  0  0  0  0  0  0  0  0  0  0
   -4.1299    1.7613    0.0000 F   0  0  0  0  0  0  0  0  0  0  0  0
   -5.2545   -0.5807    0.0000 N   0  0  0  0  0  0  0  0  0  0  0  0
   -6.5746   -1.2931    0.0000 C   0  0  0  0  0  0  0  0  0  0  0  0
   -7.6600   -0.2577    0.0000 C   0  0  0  0  0  0  0  0  0  0  0  0
   -7.0107    1.0945    0.0000 C   0  0  0  0  0  0  0  0  0  0  0  0
   -5.5240    0.8948    0.0000 C   0  0  0  0  0  0  0  0  0  0  0  0
  1  2  2  0
  2  3  1  0
  3  4  2  0
  4  5  1  0
  5  6  1  0
  6  7  1  0
  7  8  2  0
  8  9  1  0
  9 10  1  0
 10 11  2  0
 10 12  1  0
 12 13  2  0
 13 14  1  0
 14 15  1  0
 15 16  1  0
 16 17  1  0
  5 18  2  0
 18 19  1  0
 19 20  2  0
 20 21  1  0
  2 22  1  0
 22 23  1  0
 23 24  1  0
 24 25  1  0
 25 26  1  0
 20  3  1  0
 26 22  1  0
 13  7  1  0
 17 12  1  0
M  END
$$$$

     RDKit          2D

 29 32  0  0  0  0  0  0  0  0999 V2000
   -9.5214   -0.6400    0.0000 C   0  0  0  0  0  0  0  0  0  0  0  0
   -8.1878   -1.3266    0.0000 O   0  0  0  0  0  0  0  0  0  0  0  0
   -6.9264   -0.5149    0.0000 C   0  0  0  0  0  0  0  0  0  0  0  0
   -6.9986    0.9833    0.0000 C   0  0  0  0  0  0  0  0  0  0  0  0
   -5.7371    1.7950    0.0000 C   0  0  0  0  0  0  0  0  0  0  0  0
   -4.4035    1.1083    0.0000 C   0  0  0  0  0  0  0  0  0  0  0  0
   -4.3313   -0.3899    0.0000 C   0  0  0  0  0  0  0  0  0  0  0  0
   -2.9977   -1.0765    0.0000 C   0  0  0  0  0  0  0  0  0  0  0  0
   -2.9255   -2.5748    0.0000 O   0  0  0  0  0  0  0  0  0  0  0  0
   -1.7362   -0.2649    0.0000 C   0  0  0  0  0  0  0  0  0  0  0  0
   -0.4026   -0.9515    0.0000 C   0  0  0  0  0  0  0  0  0  0  0  0
    0.8588   -0.1399    0.0000 C   0  0  0  0  0  0  0  0  0  0  0  0
    2.1924   -0.8265    0.0000 C   0  0  0  0  0  0  0  0  0  0  0  0
    3.4539   -0.0148    0.0000 C   0  0  0  0  0  0  0  0  0  0  0  0
    3.3817    1.4834    0.0000 N   0  0  0  0  0  0  0  0  0  0  0  0
    4.6431    2.2951    0.0000 N   0  0  0  0  0  0  0  0  0  0  0  0
    5.9768    1.6084    0.0000 C   0  0  0  0  0  0  0  0  0  0  0  0
    7.2382    2.4201    0.0000 O   0  0  0  0  0  0  0  0  0  0  0  0
    6.0490    0.1102    0.0000 C   0  0  0  0  0  0  0  0  0  0  0  0
    4.7875   -0.7015    0.0000 C   0  0  0  0  0  0  0  0  0  0  0  0
    4.8597   -2.1997    0.0000 C   0  0  0  0  0  0  0  0  0  0  0  0
    6.1933   -2.8863    0.0000 C   0  0  0  0  0  0  0  0  0  0  0  0
    7.4548   -2.0747    0.0000 C   0  0  0  0  0  0  0  0  0  0  0  0
    7.3826   -0.5764    0.0000 C   0  0  0  0  0  0  0  0  0  0  0  0
    0.7866    1.3584    0.0000 C   0  0  0  0  0  0  0  0  0  0  0  0
   -0.5470    2.0450    0.0000 C   0  0  0  0  0  0  0  0  0  0  0  0
   -1.8084    1.2334    0.0000 C   0  0  0  0  0  0  0  0  0  0  0  0
   -3.1421    1.9200    0.0000 F   0  0  0  0  0  0  0  0  0  0  0  0
   -5.5928   -1.2016    0.0000 C   0  0  0  0  0  0  0  0  0  0  0  0
  1  2  1  0
  2  3  1  0
  3  4  2  0
  4  5  1  0
  5  6  2  0
  6  7  1  0
  7  8  1  0
  8  9  2  0
  8 10  1  0
 10 11  2  0
 11 12  1  0
 12 13  1  0
 13 14  1  0
 14 15  2  0
 15 16  1  0
 16 17  1  0
 17 18  2  0
 17 19  1  0
 19 20  2  0
 20 21  1  0
 21 22  1  0
 22 23  1  0
 23 24  1  0
 12 25  2  0
 25 26  1  0
 26 27  2  0
 27 28  1  0
  7 29  2  0
 29  3  1  0
 27 10  1  0
 20 14  1  0
 24 19  1  0
M  END
$$$$

     RDKit          2D

 29 32  0  0  0  0  0  0  0  0999 V2000
   -6.5220   -1.2369    0.0000 C   0  0  0  0  0  0  0  0  0  0  0  0
   -5.1165   -0.7128    0.0000 O   0  0  0  0  0  0  0  0  0  0  0  0
   -4.8677    0.7664    0.0000 C   0  0  0  0  0  0  0  0  0  0  0  0
   -6.0243    1.7215    0.0000 C   0  0  0  0  0  0  0  0  0  0  0  0
   -5.7755    3.2007    0.0000 C   0  0  0  0  0  0  0  0  0  0  0  0
   -4.3700    3.7248    0.0000 C   0  0  0  0  0  0  0  0  0  0  0  0
   -3.2134    2.7697    0.0000 C   0  0  0  0  0  0  0  0  0  0  0  0
   -3.4622    1.2905    0.0000 C   0  0  0  0  0  0  0  0  0  0  0  0
   -2.3056    0.3354    0.0000 N   0  0  0  0  0  0  0  0  0  0  0  0
   -2.5545   -1.1438    0.0000 C   0  0  0  0  0  0  0  0  0  0  0  0
   -3.9599   -1.6679    0.0000 O   0  0  0  0  0  0  0  0  0  0  0  0
   -1.3978   -2.0989    0.0000 C   0  0  0  0  0  0  0  0  0  0  0  0
   -1.6467   -3.5781    0.0000 C   0  0  0  0  0  0  0  0  0  0  0  0
   -0.4900   -4.5332    0.0000 C   0  0  0  0  0  0  0  0  0  0  0  0
    0.9154   -4.0091    0.0000 C   0  0  0  0  0  0  0  0  0  0  0  0
    1.1642   -2.5299    0.0000 C   0  0  0  0  0  0  0  0  0  0  0  0
    2.5697   -2.0058    0.0000 C   0  0  0  0  0  0  0  0  0  0  0  0
    2.8185   -0.5266    0.0000 C   0  0  0  0  0  0  0  0  0  0  0  0
    1.6619    0.4285    0.0000 N   0  0  0  0  0  0  0  0  0  0  0  0
    1.9108    1.9077    0.0000 N   0  0  0  0  0  0  0  0  0  0  0  0
    3.3162    2.4318    0.0000 C   0  0  0  0  0  0  0  0  0  0  0  0
    3.5650    3.9111    0.0000 O   0  0  0  0  0  0  0  0  0  0  0  0
    4.4728    1.4767    0.0000 C   0  0  0  0  0  0  0  0  0  0  0  0
    4.2240   -0.0025    0.0000 C   0  0  0  0  0  0  0  0  0  0  0  0
    5.3806   -0.9576    0.0000 C   0  0  0  0  0  0  0  0  0  0  0  0
    6.7861   -0.4335    0.0000 C   0  0  0  0  0  0  0  0  0  0  0  0
    7.0349    1.0457    0.0000 C   0  0  0  0  0  0  0  0  0  0  0  0
    5.8783    2.0008    0.0000 C   0  0  0  0  0  0  0  0  0  0  0  0
    0.0076   -1.5748    0.0000 C   0  0  0  0  0  0  0  0  0  0  0  0
  1  2  1  0
  2  3  1  0
  3  4  2  0
  4  5  1  0
  5  6  2  0
  6  7  1  0
  7  8  2  0
  8  9  1  0
  9 10  1  0
 10 11  2  0
 10 12  1  0
 12 13  2  0
 13 14  1  0
 14 15  2  0
 15 16  1  0
 16 17  1  0
 17 18  1  0
 18 19  2  0
 19 20  1  0
 20 21  1  0
 21 22  2  0
 21 23  1  0
 23 24  2  0
 24 25  1  0
 25 26  1  0
 26 27  1  0
 27 28  1  0
 16 29  2  0
  8  3  1  0
 29 12  1  0
 24 18  1  0
 28 23  1  0
M  END
$$$$

     RDKit          2D

 34 38  0  0  0  0  0  0  0  0999 V2000
   -1.4345   -2.4826    0.0000 O   0  0  0  0  0  0  0  0  0  0  0  0
   -1.4858   -0.9835    0.0000 C   0  0  0  0  0  0  0  0  0  0  0  0
   -0.2132   -0.1895    0.0000 C   0  0  0  0  0  0  0  0  0  0  0  0
    1.1107   -0.8946    0.0000 C   0  0  0  0  0  0  0  0  0  0  0  0
    2.3833   -0.1005    0.0000 C   0  0  0  0  0  0  0  0  0  0  0  0
    3.7073   -0.8056    0.0000 C   0  0  0  0  0  0  0  0  0  0  0  0
    4.9799   -0.0116    0.0000 C   0  0  0  0  0  0  0  0  0  0  0  0
    4.9286    1.4875    0.0000 N   0  0  0  0  0  0  0  0  0  0  0  0
    6.2012    2.2815    0.0000 N   0  0  0  0  0  0  0  0  0  0  0  0
    7.5251    1.5764    0.0000 C   0  0  0  0  0  0  0  0  0  0  0  0
    8.7977    2.3705    0.0000 O   0  0  0  0  0  0  0  0  0  0  0  0
    7.5765    0.0773    0.0000 C   0  0  0  0  0  0  0  0  0  0  0  0
    6.3039   -0.7167    0.0000 C   0  0  0  0  0  0  0  0  0  0  0  0
    6.3552   -2.2158    0.0000 N   0  0  0  0  0  0  0  0  0  0  0  0
    7.6791   -2.9209    0.0000 C   0  0  0  0  0  0  0  0  0  0  0  0
    8.9517   -2.1269    0.0000 C   0  0  0  0  0  0  0  0  0  0  0  0
    8.9004   -0.6278    0.0000 C   0  0  0  0  0  0  0  0  0  0  0  0
    2.3320    1.3986    0.0000 C   0  0  0  0  0  0  0  0  0  0  0  0
    1.0081    2.1037    0.0000 C   0  0  0  0  0  0  0  0  0  0  0  0
   -0.2645    1.3097    0.0000 C   0  0  0  0  0  0  0  0  0  0  0  0
   -1.5885    2.0148    0.0000 F   0  0  0  0  0  0  0  0  0  0  0  0
   -2.8098   -0.2784    0.0000 N   0  0  0  0  0  0  0  0  0  0  0  0
   -2.8611    1.2207    0.0000 C   0  0  0  0  0  0  0  0  0  0  0  0
   -4.1851    1.9258    0.0000 C   0  0  0  0  0  0  0  0  0  0  0  0
   -5.4577    1.1318    0.0000 N   0  0  0  0  0  0  0  0  0  0  0  0
   -5.4063   -0.3673    0.0000 C   0  0  0  0  0  0  0  0  0  0  0  0
   -6.6789   -1.1613    0.0000 C   0  0  0  0  0  0  0  0  0  0  0  0
   -6.6276   -2.6605    0.0000 O   0  0  0  0  0  0  0  0  0  0  0  0
   -8.0029   -0.4563    0.0000 N   0  0  0  0  0  0  0  0  0  0  0  0
   -9.3515   -1.1129    0.0000 C   0  0  0  0  0  0  0  0  0  0  0  0
  -10.3928   -0.0332    0.0000 C   0  0  0  0  0  0  0  0  0  0  0  0
   -9.6877    1.2908    0.0000 C   0  0  0  0  0  0  0  0  0  0  0  0
   -8.2106    1.0293    0.0000 C   0  0  0  0  0  0  0  0  0  0  0  0
   -4.0824   -1.0724    0.0000 C   0  0  0  0  0  0  0  0  0  0  0  0
  1  2  2  0
  2  3  1  0
  3  4  2  0
  4  5  1  0
  5  6  1  0
  6  7  1  0
  7  8  2  0
  8  9  1  0
  9 10  1  0
 10 11  2  0
 10 12  1  0
 12 13  2  0
 13 14  1  0
 14 15  1  0
 15 16  1  0
 16 17  1  0
  5 18  2  0
 18 19  1  0
 19 20  2  0
 20 21  1  0
  2 22  1  0
 22 23  1  0
 23 24  1  0
 24 25  1  0
 25 26  1  0
 26 27  1  0
 27 28  2  0
 27 29  1  0
 29 30  1  0
 30 31  1  0
 31 32  1  0
 32 33  1  0
 26 34  1  0
 20  3  1  0
 34 22  1  0
 13  7  1  0
 33 29  1  0
 17 12  1  0
M  END
$$$$

     RDKit          2D

 28 31  0  0  0  0  0  0  0  0999 V2000
   -7.1206   -3.1374    0.0000 N   0  0  0  0  0  0  0  0  0  0  0  0
   -5.6937   -2.6748    0.0000 C   0  0  0  0  0  0  0  0  0  0  0  0
   -4.5797   -3.6793    0.0000 O   0  0  0  0  0  0  0  0  0  0  0  0
   -5.3808   -1.2078    0.0000 C   0  0  0  0  0  0  0  0  0  0  0  0
   -6.4949   -0.2034    0.0000 C   0  0  0  0  0  0  0  0  0  0  0  0
   -6.1820    1.2636    0.0000 C   0  0  0  0  0  0  0  0  0  0  0  0
   -4.7551    1.7262    0.0000 C   0  0  0  0  0  0  0  0  0  0  0  0
   -3.6411    0.7217    0.0000 C   0  0  0  0  0  0  0  0  0  0  0  0
   -2.2142    1.1843    0.0000 C   0  0  0  0  0  0  0  0  0  0  0  0
   -1.1001    0.1798    0.0000 C   0  0  0  0  0  0  0  0  0  0  0  0
    0.3268    0.6424    0.0000 C   0  0  0  0  0  0  0  0  0  0  0  0
    1.4408   -0.3620    0.0000 C   0  0  0  0  0  0  0  0  0  0  0  0
    2.8677    0.1005    0.0000 C   0  0  0  0  0  0  0  0  0  0  0  0
    3.1805    1.5675    0.0000 N   0  0  0  0  0  0  0  0  0  0  0  0
    4.6074    2.0301    0.0000 N   0  0  0  0  0  0  0  0  0  0  0  0
    5.7215    1.0256    0.0000 C   0  0  0  0  0  0  0  0  0  0  0  0
    7.1484    1.4882    0.0000 O   0  0  0  0  0  0  0  0  0  0  0  0
    5.4086   -0.4414    0.0000 C   0  0  0  0  0  0  0  0  0  0  0  0
    3.9817   -0.9039    0.0000 C   0  0  0  0  0  0  0  0  0  0  0  0
    3.6689   -2.3709    0.0000 N   0  0  0  0  0  0  0  0  0  0  0  0
    4.7829   -3.3754    0.0000 C   0  0  0  0  0  0  0  0  0  0  0  0
    6.2098   -2.9128    0.0000 C   0  0  0  0  0  0  0  0  0  0  0  0
    6.5227   -1.4458    0.0000 C   0  0  0  0  0  0  0  0  0  0  0  0
    0.6396    2.1094    0.0000 C   0  0  0  0  0  0  0  0  0  0  0  0
   -0.4744    3.1139    0.0000 C   0  0  0  0  0  0  0  0  0  0  0  0
   -1.9013    2.6513    0.0000 C   0  0  0  0  0  0  0  0  0  0  0  0
   -3.0154    3.6558    0.0000 F   0  0  0  0  0  0  0  0  0  0  0  0
   -3.9539   -0.7453    0.0000 C   0  0  0  0  0  0  0  0  0  0  0  0
  1  2  1  0
  2  3  2  0
  2  4  1  0
  4  5  2  0
  5  6  1  0
  6  7  2  0
  7  8  1  0
  8  9  1  0
  9 10  2  0
 10 11  1  0
 11 12  1  0
 12 13  1  0
 13 14  2  0
 14 15  1  0
 15 16  1  0
 16 17  2  0
 16 18  1  0
 18 19  2  0
 19 20  1  0
 20 21  1  0
 21 22  1  0
 22 23  1  0
 11 24  2  0
 24 25  1  0
 25 26  2  0
 26 27  1  0
  8 28  2  0
 28  4  1  0
 26  9  1  0
 19 13  1  0
 23 18  1  0
M  END
$$$$

     RDKit          2D

 25 27  0  0  0  0  0  0  0  0999 V2000
   -3.2184    3.0317    0.0000 C   0  0  0  0  0  0  0  0  0  0  0  0
   -4.3230    2.0168    0.0000 C   0  0  0  0  0  0  0  0  0  0  0  0
   -5.4275    1.0020    0.0000 C   0  0  0  0  0  0  0  0  0  0  0  0
   -5.3378    3.1214    0.0000 C   0  0  0  0  0  0  0  0  0  0  0  0
   -3.3081    0.9123    0.0000 C   0  0  0  0  0  0  0  0  0  0  0  0
   -1.8441    1.2390    0.0000 O   0  0  0  0  0  0  0  0  0  0  0  0
   -3.7572   -0.5189    0.0000 N   0  0  0  0  0  0  0  0  0  0  0  0
   -2.7423   -1.6234    0.0000 C   0  0  0  0  0  0  0  0  0  0  0  0
   -1.2783   -1.2968    0.0000 C   0  0  0  0  0  0  0  0  0  0  0  0
   -0.2634   -2.4013    0.0000 C   0  0  0  0  0  0  0  0  0  0  0  0
    1.2006   -2.0746    0.0000 C   0  0  0  0  0  0  0  0  0  0  0  0
    1.6497   -0.6435    0.0000 C   0  0  0  0  0  0  0  0  0  0  0  0
    0.6348    0.4611    0.0000 N   0  0  0  0  0  0  0  0  0  0  0  0
    1.0839    1.8923    0.0000 N   0  0  0  0  0  0  0  0  0  0  0  0
    2.5479    2.2189    0.0000 C   0  0  0  0  0  0  0  0  0  0  0  0
    2.9970    3.6501    0.0000 O   0  0  0  0  0  0  0  0  0  0  0  0
    3.5628    1.1144    0.0000 C   0  0  0  0  0  0  0  0  0  0  0  0
    3.1137   -0.3168    0.0000 C   0  0  0  0  0  0  0  0  0  0  0  0
    4.1286   -1.4213    0.0000 C   0  0  0  0  0  0  0  0  0  0  0  0
    5.5926   -1.0947    0.0000 C   0  0  0  0  0  0  0  0  0  0  0  0
    6.0417    0.3365    0.0000 C   0  0  0  0  0  0  0  0  0  0  0  0
    5.0268    1.4410    0.0000 C   0  0  0  0  0  0  0  0  0  0  0  0
   -0.7125   -3.8325    0.0000 C   0  0  0  0  0  0  0  0  0  0  0  0
   -2.1765   -4.1591    0.0000 C   0  0  0  0  0  0  0  0  0  0  0  0
   -3.1914   -3.0546    0.0000 N   0  0  0  0  0  0  0  0  0  0  0  0
  1  2  1  0
  2  3  1  0
  2  4  1  0
  2  5  1  0
  5  6  2  0
  5  7  1  0
  7  8  1  0
  8  9  2  0
  9 10  1  0
 10 11  1  0
 11 12  1  0
 12 13  2  0
 13 14  1  0
 14 15  1  0
 15 16  2  0
 15 17  1  0
 17 18  2  0
 18 19  1  0
 19 20  1  0
 20 21  1  0
 21 22  1  0
 10 23  2  0
 23 24  1  0
 24 25  2  0
 25  8  1  0
 18 12  1  0
 22 17  1  0
M  END
$$$$

     RDKit          2D

 22 24  0  0  0  0  0  0  0  0999 V2000
   -4.0522    3.5506    0.0000 C   0  0  0  0  0  0  0  0  0  0  0  0
   -3.3424    2.2292    0.0000 O   0  0  0  0  0  0  0  0  0  0  0  0
   -4.1318    0.9537    0.0000 C   0  0  0  0  0  0  0  0  0  0  0  0
   -5.6311    0.9997    0.0000 O   0  0  0  0  0  0  0  0  0  0  0  0
   -3.4220   -0.3677    0.0000 C   0  0  0  0  0  0  0  0  0  0  0  0
   -1.9227   -0.4137    0.0000 C   0  0  0  0  0  0  0  0  0  0  0  0
   -1.2128   -1.7351    0.0000 C   0  0  0  0  0  0  0  0  0  0  0  0
    0.2865   -1.7810    0.0000 C   0  0  0  0  0  0  0  0  0  0  0  0
    1.0759   -0.5056    0.0000 C   0  0  0  0  0  0  0  0  0  0  0  0
    0.3661    0.8158    0.0000 N   0  0  0  0  0  0  0  0  0  0  0  0
    1.1555    2.0913    0.0000 N   0  0  0  0  0  0  0  0  0  0  0  0
    2.6548    2.0453    0.0000 C   0  0  0  0  0  0  0  0  0  0  0  0
    3.4443    3.3208    0.0000 O   0  0  0  0  0  0  0  0  0  0  0  0
    3.3647    0.7239    0.0000 C   0  0  0  0  0  0  0  0  0  0  0  0
    2.5752   -0.5515    0.0000 C   0  0  0  0  0  0  0  0  0  0  0  0
    3.2851   -1.8729    0.0000 C   0  0  0  0  0  0  0  0  0  0  0  0
    4.7844   -1.9189    0.0000 C   0  0  0  0  0  0  0  0  0  0  0  0
    5.5738   -0.6435    0.0000 C   0  0  0  0  0  0  0  0  0  0  0  0
    4.8640    0.6780    0.0000 C   0  0  0  0  0  0  0  0  0  0  0  0
   -2.0023   -3.0105    0.0000 C   0  0  0  0  0  0  0  0  0  0  0  0
   -3.5016   -2.9646    0.0000 C   0  0  0  0  0  0  0  0  0  0  0  0
   -4.2114   -1.6432    0.0000 N   0  0  0  0  0  0  0  0  0  0  0  0
  1  2  1  0
  2  3  1  0
  3  4  2  0
  3  5  1  0
  5  6  2  0
  6  7  1  0
  7  8  1  0
  8  9  1  0
  9 10  2  0
 10 11  1  0
 11 12  1  0
 12 13  2  0
 12 14  1  0
 14 15  2  0
 15 16  1  0
 16 17  1  0
 17 18  1  0
 18 19  1  0
  7 20  2  0
 20 21  1  0
 21 22  2  0
 22  5  1  0
 15  9  1  0
 19 14  1  0
M  END
$$$$

     RDKit          2D

 27 30  0  0  0  0  0  0  0  0999 V2000
   -4.2392    1.0594    0.0000 C   0  0  0  0  0  0  0  0  0  0  0  0
   -5.0911   -0.1752    0.0000 C   0  0  0  0  0  0  0  0  0  0  0  0
   -3.7743   -0.8934    0.0000 C   0  0  0  0  0  0  0  0  0  0  0  0
   -3.7378   -2.3929    0.0000 O   0  0  0  0  0  0  0  0  0  0  0  0
   -2.4938   -0.1120    0.0000 C   0  0  0  0  0  0  0  0  0  0  0  0
   -1.1770   -0.8302    0.0000 C   0  0  0  0  0  0  0  0  0  0  0  0
    0.1035   -0.0489    0.0000 C   0  0  0  0  0  0  0  0  0  0  0  0
    1.4204   -0.7671    0.0000 C   0  0  0  0  0  0  0  0  0  0  0  0
    2.7008    0.0143    0.0000 C   0  0  0  0  0  0  0  0  0  0  0  0
    2.6643    1.5138    0.0000 N   0  0  0  0  0  0  0  0  0  0  0  0
    3.9447    2.2952    0.0000 N   0  0  0  0  0  0  0  0  0  0  0  0
    5.2616    1.5770    0.0000 C   0  0  0  0  0  0  0  0  0  0  0  0
    6.5420    2.3584    0.0000 O   0  0  0  0  0  0  0  0  0  0  0  0
    5.2981    0.0774    0.0000 C   0  0  0  0  0  0  0  0  0  0  0  0
    4.0177   -0.7039    0.0000 C   0  0  0  0  0  0  0  0  0  0  0  0
    4.0541   -2.2035    0.0000 C   0  0  0  0  0  0  0  0  0  0  0  0
    5.3710   -2.9217    0.0000 C   0  0  0  0  0  0  0  0  0  0  0  0
    6.6514   -2.1403    0.0000 C   0  0  0  0  0  0  0  0  0  0  0  0
    6.6150   -0.6408    0.0000 C   0  0  0  0  0  0  0  0  0  0  0  0
    0.0670    1.4507    0.0000 C   0  0  0  0  0  0  0  0  0  0  0  0
   -1.2499    2.1689    0.0000 C   0  0  0  0  0  0  0  0  0  0  0  0
   -2.5303    1.3875    0.0000 C   0  0  0  0  0  0  0  0  0  0  0  0
   -3.8472    2.1057    0.0000 F   0  0  0  0  0  0  0  0  0  0  0  0
   -6.2299    0.8011    0.0000 C   0  0  0  0  0  0  0  0  0  0  0  0
   -7.5104    0.0198    0.0000 C   0  0  0  0  0  0  0  0  0  0  0  0
   -7.1629   -1.4395    0.0000 C   0  0  0  0  0  0  0  0  0  0  0  0
   -5.6678   -1.5599    0.0000 C   0  0  0  0  0  0  0  0  0  0  0  0
  1  2  1  0
  2  3  1  0
  3  4  2  0
  3  5  1  0
  5  6  2  0
  6  7  1  0
  7  8  1  0
  8  9  1  0
  9 10  2  0
 10 11  1  0
 11 12  1  0
 12 13  2  0
 12 14  1  0
 14 15  2  0
 15 16  1  0
 16 17  1  0
 17 18  1  0
 18 19  1  0
  7 20  2  0
 20 21  1  0
 21 22  2  0
 22 23  1  0
  2 24  1  0
 24 25  1  0
 25 26  1  0
 26 27  1  0
 27  2  1  0
 22  5  1  0
 15  9  1  0
 19 14  1  0
M  END
$$$$

     RDKit          2D

 18 20  0  0  0  0  0  0  0  0999 V2000
    4.8372   -0.8177    0.0000 C   0  0  0  0  0  0  0  0  0  0  0  0
    3.4487   -0.2502    0.0000 N   0  0  0  0  0  0  0  0  0  0  0  0
    3.4416    1.2497    0.0000 C   0  0  0  0  0  0  0  0  0  0  0  0
    2.3760    2.3054    0.0000 C   0  0  0  0  0  0  0  0  0  0  0  0
    0.8760    2.2983    0.0000 O   0  0  0  0  0  0  0  0  0  0  0  0
   -0.1797    1.2326    0.0000 C   0  0  0  0  0  0  0  0  0  0  0  0
   -0.1726   -0.2674    0.0000 C   0  0  0  0  0  0  0  0  0  0  0  0
   -1.6196   -0.6625    0.0000 C   0  0  0  0  0  0  0  0  0  0  0  0
   -2.0010   -2.1132    0.0000 C   0  0  0  0  0  0  0  0  0  0  0  0
   -0.9353   -3.1688    0.0000 C   0  0  0  0  0  0  0  0  0  0  0  0
    0.5117   -2.7737    0.0000 C   0  0  0  0  0  0  0  0  0  0  0  0
    0.8931   -1.3230    0.0000 C   0  0  0  0  0  0  0  0  0  0  0  0
    2.3931   -1.3159    0.0000 N   0  0  0  0  0  0  0  0  0  0  0  0
   -2.9859   -0.0435    0.0000 C   0  0  0  0  0  0  0  0  0  0  0  0
   -4.1364   -1.0059    0.0000 F   0  0  0  0  0  0  0  0  0  0  0  0
   -3.3539    1.4107    0.0000 C   0  0  0  0  0  0  0  0  0  0  0  0
   -2.4464    2.6050    0.0000 C   0  0  0  0  0  0  0  0  0  0  0  0
   -0.9468    2.6402    0.0000 C   0  0  0  0  0  0  0  0  0  0  0  0
  1  2  1  0
  2  3  1  0
  3  4  1  0
  4  5  1  0
  5  6  1  0
  6  7  2  0
  7  8  1  0
  8  9  2  0
  9 10  1  0
 10 11  2  0
 11 12  1  0
 12 13  2  0
  8 14  1  0
 14 15  1  0
 14 16  2  0
 16 17  1  0
 17 18  2  0
 13  2  1  0
 18  6  1  0
 12  7  1  0
M  END
$$$$

     RDKit          2D

 29 33  0  0  0  0  0  0  0  0999 V2000
   -6.5482    2.6306    0.0000 C   0  0  0  0  0  0  0  0  0  0  0  0
   -5.4361    1.6240    0.0000 C   0  0  0  0  0  0  0  0  0  0  0  0
   -4.0083    2.0838    0.0000 C   0  0  0  0  0  0  0  0  0  0  0  0
   -3.6926    3.5502    0.0000 C   0  0  0  0  0  0  0  0  0  0  0  0
   -2.8962    1.0771    0.0000 C   0  0  0  0  0  0  0  0  0  0  0  0
   -1.4684    1.5369    0.0000 C   0  0  0  0  0  0  0  0  0  0  0  0
   -0.3564    0.5303    0.0000 C   0  0  0  0  0  0  0  0  0  0  0  0
    1.0714    0.9900    0.0000 O   0  0  0  0  0  0  0  0  0  0  0  0
    2.1835   -0.0166    0.0000 C   0  0  0  0  0  0  0  0  0  0  0  0
    3.6113    0.4432    0.0000 C   0  0  0  0  0  0  0  0  0  0  0  0
    3.9270    1.9096    0.0000 N   0  0  0  0  0  0  0  0  0  0  0  0
    5.3548    2.3694    0.0000 N   0  0  0  0  0  0  0  0  0  0  0  0
    6.4669    1.3627    0.0000 C   0  0  0  0  0  0  0  0  0  0  0  0
    7.8947    1.8225    0.0000 O   0  0  0  0  0  0  0  0  0  0  0  0
    6.1512   -0.1037    0.0000 C   0  0  0  0  0  0  0  0  0  0  0  0
    4.7234   -0.5634    0.0000 C   0  0  0  0  0  0  0  0  0  0  0  0
    4.4076   -2.0298    0.0000 N   0  0  0  0  0  0  0  0  0  0  0  0
    5.5197   -3.0365    0.0000 C   0  0  0  0  0  0  0  0  0  0  0  0
    6.9475   -2.5767    0.0000 C   0  0  0  0  0  0  0  0  0  0  0  0
    7.2632   -1.1103    0.0000 C   0  0  0  0  0  0  0  0  0  0  0  0
   -0.6721   -0.9361    0.0000 C   0  0  0  0  0  0  0  0  0  0  0  0
   -2.0999   -1.3959    0.0000 C   0  0  0  0  0  0  0  0  0  0  0  0
   -3.2120   -0.3893    0.0000 C   0  0  0  0  0  0  0  0  0  0  0  0
   -4.6398   -0.8490    0.0000 N   0  0  0  0  0  0  0  0  0  0  0  0
   -5.8510    0.0358    0.0000 C   0  0  0  0  0  0  0  0  0  0  0  0
   -7.0668   -0.8426    0.0000 C   0  0  0  0  0  0  0  0  0  0  0  0
   -6.6070   -2.2704    0.0000 C   0  0  0  0  0  0  0  0  0  0  0  0
   -5.8605   -3.5714    0.0000 C   0  0  0  0  0  0  0  0  0  0  0  0
   -5.1071   -2.2744    0.0000 C   0  0  0  0  0  0  0  0  0  0  0  0
  1  2  1  0
  2  3  1  0
  3  4  1  0
  3  5  1  0
  5  6  2  0
  6  7  1  0
  7  8  1  0
  8  9  1  0
  9 10  1  0
 10 11  2  0
 11 12  1  0
 12 13  1  0
 13 14  2  0
 13 15  1  0
 15 16  2  0
 16 17  1  0
 17 18  1  0
 18 19  1  0
 19 20  1  0
  7 21  2  0
 21 22  1  0
 22 23  2  0
 23 24  1  0
 24 25  1  0
 25 26  1  0
 26 27  1  0
 27 28  1  0
 28 29  1  0
 23  5  1  0
 29 24  1  0
 16 10  1  0
 29 27  1  0
 20 15  1  0
M  END
$$$$

     RDKit          2D

 32 35  0  0  0  0  0  0  0  0999 V2000
    9.8842   -1.7290    0.0000 C   0  0  0  0  0  0  0  0  0  0  0  0
    9.3860   -0.3141    0.0000 C   0  0  0  0  0  0  0  0  0  0  0  0
    7.9116   -0.0382    0.0000 N   0  0  0  0  0  0  0  0  0  0  0  0
    7.1935   -1.3551    0.0000 C   0  0  0  0  0  0  0  0  0  0  0  0
    5.8385   -1.9985    0.0000 C   0  0  0  0  0  0  0  0  0  0  0  0
    4.3641   -1.7225    0.0000 C   0  0  0  0  0  0  0  0  0  0  0  0
    3.3335   -0.6326    0.0000 N   0  0  0  0  0  0  0  0  0  0  0  0
    1.9784   -1.2760    0.0000 C   0  0  0  0  0  0  0  0  0  0  0  0
    1.8581   -2.7712    0.0000 O   0  0  0  0  0  0  0  0  0  0  0  0
    0.7438   -0.4242    0.0000 C   0  0  0  0  0  0  0  0  0  0  0  0
    0.8641    1.0710    0.0000 C   0  0  0  0  0  0  0  0  0  0  0  0
   -0.3706    1.9228    0.0000 C   0  0  0  0  0  0  0  0  0  0  0  0
   -1.7256    1.2794    0.0000 C   0  0  0  0  0  0  0  0  0  0  0  0
   -1.8459   -0.2158    0.0000 C   0  0  0  0  0  0  0  0  0  0  0  0
   -3.2010   -0.8591    0.0000 C   0  0  0  0  0  0  0  0  0  0  0  0
   -4.4356   -0.0073    0.0000 C   0  0  0  0  0  0  0  0  0  0  0  0
   -4.3153    1.4878    0.0000 N   0  0  0  0  0  0  0  0  0  0  0  0
   -5.5500    2.3396    0.0000 N   0  0  0  0  0  0  0  0  0  0  0  0
   -6.9050    1.6963    0.0000 C   0  0  0  0  0  0  0  0  0  0  0  0
   -8.1397    2.5481    0.0000 O   0  0  0  0  0  0  0  0  0  0  0  0
   -7.0253    0.2011    0.0000 C   0  0  0  0  0  0  0  0  0  0  0  0
   -5.7907   -0.6507    0.0000 C   0  0  0  0  0  0  0  0  0  0  0  0
   -5.9110   -2.1459    0.0000 C   0  0  0  0  0  0  0  0  0  0  0  0
   -7.2660   -2.7892    0.0000 C   0  0  0  0  0  0  0  0  0  0  0  0
   -8.5007   -1.9374    0.0000 C   0  0  0  0  0  0  0  0  0  0  0  0
   -8.3804   -0.4423    0.0000 C   0  0  0  0  0  0  0  0  0  0  0  0
   -0.6113   -1.0676    0.0000 C   0  0  0  0  0  0  0  0  0  0  0  0
    3.1403    0.8549    0.0000 C   0  0  0  0  0  0  0  0  0  0  0  0
    3.8584    2.1718    0.0000 C   0  0  0  0  0  0  0  0  0  0  0  0
    5.2134    2.8152    0.0000 C   0  0  0  0  0  0  0  0  0  0  0  0
    6.6878    2.5392    0.0000 C   0  0  0  0  0  0  0  0  0  0  0  0
    7.7184    1.4493    0.0000 C   0  0  0  0  0  0  0  0  0  0  0  0
  1  2  1  0
  2  3  1  0
  3  4  1  0
  4  5  2  0
  5  6  1  0
  6  7  1  0
  7  8  1  0
  8  9  2  0
  8 10  1  0
 10 11  2  0
 11 12  1  0
 12 13  2  0
 13 14  1  0
 14 15  1  0
 15 16  1  0
 16 17  2  0
 17 18  1  0
 18 19  1  0
 19 20  2  0
 19 21  1  0
 21 22  2  0
 22 23  1  0
 23 24  1  0
 24 25  1  0
 25 26  1  0
 14 27  2  0
  7 28  1  0
 28 29  1  0
 29 30  1  0
 30 31  1  0
 31 32  1  0
 32  3  1  0
 27 10  1  0
 22 16  1  0
 26 21  1  0
M  END
$$$$

     RDKit          2D

 19 21  0  0  0  0  0  0  0  0999 V2000
    3.5136   -2.9648    0.0000 O   0  0  0  0  0  0  0  0  0  0  0  0
    2.4581   -1.8990    0.0000 C   0  0  0  0  0  0  0  0  0  0  0  0
    1.0073   -2.2802    0.0000 N   0  0  0  0  0  0  0  0  0  0  0  0
   -0.0482   -1.2144    0.0000 N   0  0  0  0  0  0  0  0  0  0  0  0
    0.3470    0.2326    0.0000 C   0  0  0  0  0  0  0  0  0  0  0  0
   -0.7085    1.2983    0.0000 C   0  0  0  0  0  0  0  0  0  0  0  0
   -2.1592    0.9171    0.0000 C   0  0  0  0  0  0  0  0  0  0  0  0
   -3.2148    1.9829    0.0000 C   0  0  0  0  0  0  0  0  0  0  0  0
   -4.6655    1.6017    0.0000 C   0  0  0  0  0  0  0  0  0  0  0  0
   -5.0607    0.1547    0.0000 C   0  0  0  0  0  0  0  0  0  0  0  0
   -4.0052   -0.9111    0.0000 C   0  0  0  0  0  0  0  0  0  0  0  0
   -4.4005   -2.3581    0.0000 F   0  0  0  0  0  0  0  0  0  0  0  0
   -2.5545   -0.5299    0.0000 C   0  0  0  0  0  0  0  0  0  0  0  0
    1.7978    0.6138    0.0000 C   0  0  0  0  0  0  0  0  0  0  0  0
    2.8533   -0.4520    0.0000 C   0  0  0  0  0  0  0  0  0  0  0  0
    4.3040   -0.0708    0.0000 C   0  0  0  0  0  0  0  0  0  0  0  0
    4.6993    1.3762    0.0000 C   0  0  0  0  0  0  0  0  0  0  0  0
    3.6438    2.4420    0.0000 C   0  0  0  0  0  0  0  0  0  0  0  0
    2.1930    2.0608    0.0000 N   0  0  0  0  0  0  0  0  0  0  0  0
  1  2  2  0
  2  3  1  0
  3  4  1  0
  4  5  2  0
  5  6  1  0
  6  7  1  0
  7  8  2  0
  8  9  1  0
  9 10  2  0
 10 11  1  0
 11 12  1  0
 11 13  2  0
  5 14  1  0
 14 15  2  0
 15 16  1  0
 16 17  1  0
 17 18  1  0
 18 19  1  0
 15  2  1  0
 13  7  1  0
 19 14  1  0
M  END
$$$$

     RDKit          2D

 13 15  0  0  0  0  0  0  0  0999 V2000
   -4.4084    0.3882    0.0000 C   0  0  0  0  0  0  0  0  0  0  0  0
   -2.9624   -0.0106    0.0000 C   0  0  0  0  0  0  0  0  0  0  0  0
   -2.4351   -1.4148    0.0000 N   0  0  0  0  0  0  0  0  0  0  0  0
   -0.9366   -1.3472    0.0000 C   0  0  0  0  0  0  0  0  0  0  0  0
    0.4677   -0.8199    0.0000 C   0  0  0  0  0  0  0  0  0  0  0  0
    0.7131    0.6599    0.0000 C   0  0  0  0  0  0  0  0  0  0  0  0
    2.1173    1.1872    0.0000 C   0  0  0  0  0  0  0  0  0  0  0  0
    3.2761    0.2348    0.0000 C   0  0  0  0  0  0  0  0  0  0  0  0
    4.7559   -0.0106    0.0000 C   0  0  0  0  0  0  0  0  0  0  0  0
    3.8035   -1.1695    0.0000 N   0  0  0  0  0  0  0  0  0  0  0  0
   -0.4457    1.6123    0.0000 C   0  0  0  0  0  0  0  0  0  0  0  0
   -1.8500    1.0850    0.0000 C   0  0  0  0  0  0  0  0  0  0  0  0
   -2.0954   -0.3948    0.0000 C   0  0  0  0  0  0  0  0  0  0  0  0
  1  2  1  0
  2  3  1  0
  3  4  1  0
  4  5  2  0
  5  6  1  0
  6  7  1  0
  7  8  1  0
  8  9  1  0
  9 10  1  0
  6 11  2  0
 11 12  1  0
 12 13  2  0
 12  2  1  0
 13  4  1  0
 10  8  1  0
M  END
$$$$

     RDKit          2D

 38 42  0  0  0  0  0  0  0  0999 V2000
   -6.3403   -2.7540    0.0000 O   0  0  0  0  0  0  0  0  0  0  0  0
   -5.3935   -1.5906    0.0000 C   0  0  0  0  0  0  0  0  0  0  0  0
   -5.9276   -0.1889    0.0000 C   0  0  0  0  0  0  0  0  0  0  0  0
   -7.4086    0.0494    0.0000 C   0  0  0  0  0  0  0  0  0  0  0  0
   -7.9427    1.4511    0.0000 O   0  0  0  0  0  0  0  0  0  0  0  0
   -9.4237    1.6893    0.0000 C   0  0  0  0  0  0  0  0  0  0  0  0
   -9.9578    3.0910    0.0000 C   0  0  0  0  0  0  0  0  0  0  0  0
  -11.4387    3.3293    0.0000 C   0  0  0  0  0  0  0  0  0  0  0  0
  -12.3856    2.1659    0.0000 C   0  0  0  0  0  0  0  0  0  0  0  0
  -11.8515    0.7642    0.0000 C   0  0  0  0  0  0  0  0  0  0  0  0
  -10.3705    0.5259    0.0000 C   0  0  0  0  0  0  0  0  0  0  0  0
   -3.9126   -1.8289    0.0000 N   0  0  0  0  0  0  0  0  0  0  0  0
   -3.3784   -3.2305    0.0000 C   0  0  0  0  0  0  0  0  0  0  0  0
   -1.8975   -3.4688    0.0000 C   0  0  0  0  0  0  0  0  0  0  0  0
   -0.9507   -2.3054    0.0000 N   0  0  0  0  0  0  0  0  0  0  0  0
    0.5303   -2.5437    0.0000 C   0  0  0  0  0  0  0  0  0  0  0  0
    1.0644   -3.9454    0.0000 O   0  0  0  0  0  0  0  0  0  0  0  0
    1.4771   -1.3803    0.0000 C   0  0  0  0  0  0  0  0  0  0  0  0
    2.9581   -1.6186    0.0000 C   0  0  0  0  0  0  0  0  0  0  0  0
    3.9049   -0.4552    0.0000 C   0  0  0  0  0  0  0  0  0  0  0  0
    5.3859   -0.6934    0.0000 C   0  0  0  0  0  0  0  0  0  0  0  0
    6.3327    0.4700    0.0000 C   0  0  0  0  0  0  0  0  0  0  0  0
    5.7986    1.8717    0.0000 N   0  0  0  0  0  0  0  0  0  0  0  0
    6.7454    3.0351    0.0000 N   0  0  0  0  0  0  0  0  0  0  0  0
    8.2264    2.7968    0.0000 C   0  0  0  0  0  0  0  0  0  0  0  0
    9.1732    3.9602    0.0000 O   0  0  0  0  0  0  0  0  0  0  0  0
    8.7605    1.3951    0.0000 C   0  0  0  0  0  0  0  0  0  0  0  0
    7.8137    0.2317    0.0000 C   0  0  0  0  0  0  0  0  0  0  0  0
    8.3478   -1.1700    0.0000 C   0  0  0  0  0  0  0  0  0  0  0  0
    9.8287   -1.4083    0.0000 C   0  0  0  0  0  0  0  0  0  0  0  0
   10.7756   -0.2449    0.0000 C   0  0  0  0  0  0  0  0  0  0  0  0
   10.2414    1.1568    0.0000 C   0  0  0  0  0  0  0  0  0  0  0  0
    3.3708    0.9465    0.0000 C   0  0  0  0  0  0  0  0  0  0  0  0
    1.8898    1.1848    0.0000 C   0  0  0  0  0  0  0  0  0  0  0  0
    0.9430    0.0214    0.0000 C   0  0  0  0  0  0  0  0  0  0  0  0
   -0.5379    0.2597    0.0000 F   0  0  0  0  0  0  0  0  0  0  0  0
   -1.4848   -0.9037    0.0000 C   0  0  0  0  0  0  0  0  0  0  0  0
   -2.9657   -0.6654    0.0000 C   0  0  0  0  0  0  0  0  0  0  0  0
  1  2  2  0
  2  3  1  0
  3  4  1  0
  4  5  1  0
  5  6  1  0
  6  7  2  0
  7  8  1  0
  8  9  2  0
  9 10  1  0
 10 11  2  0
  2 12  1  0
 12 13  1  0
 13 14  1  0
 14 15  1  0
 15 16  1  0
 16 17  2  0
 16 18  1  0
 18 19  2  0
 19 20  1  0
 20 21  1  0
 21 22  1  0
 22 23  2  0
 23 24  1  0
 24 25  1  0
 25 26  2  0
 25 27  1  0
 27 28  2  0
 28 29  1  0
 29 30  1  0
 30 31  1  0
 31 32  1  0
 20 33  2  0
 33 34  1  0
 34 35  2  0
 35 36  1  0
 15 37  1  0
 37 38  1  0
 11  6  1  0
 38 12  1  0
 35 18  1  0
 28 22  1  0
 32 27  1  0
M  END
$$$$

     RDKit          2D

 28 31  0  0  0  0  0  0  0  0999 V2000
   -5.5838   -0.8688    0.0000 O   0  0  0  0  0  0  0  0  0  0  0  0
   -6.0126    0.5687    0.0000 C   0  0  0  0  0  0  0  0  0  0  0  0
   -7.4718    0.9161    0.0000 O   0  0  0  0  0  0  0  0  0  0  0  0
   -4.9821    1.6587    0.0000 C   0  0  0  0  0  0  0  0  0  0  0  0
   -5.0241    3.1581    0.0000 C   0  0  0  0  0  0  0  0  0  0  0  0
   -3.5247    3.2001    0.0000 C   0  0  0  0  0  0  0  0  0  0  0  0
   -3.4827    1.7007    0.0000 C   0  0  0  0  0  0  0  0  0  0  0  0
   -2.3927    0.6703    0.0000 N   0  0  0  0  0  0  0  0  0  0  0  0
   -2.7401   -0.7890    0.0000 C   0  0  0  0  0  0  0  0  0  0  0  0
   -4.1775   -1.2177    0.0000 O   0  0  0  0  0  0  0  0  0  0  0  0
   -1.6501   -1.8194    0.0000 C   0  0  0  0  0  0  0  0  0  0  0  0
   -1.9975   -3.2787    0.0000 C   0  0  0  0  0  0  0  0  0  0  0  0
   -0.9075   -4.3091    0.0000 C   0  0  0  0  0  0  0  0  0  0  0  0
    0.5299   -3.8804    0.0000 C   0  0  0  0  0  0  0  0  0  0  0  0
    0.8773   -2.4212    0.0000 C   0  0  0  0  0  0  0  0  0  0  0  0
    2.3148   -1.9925    0.0000 C   0  0  0  0  0  0  0  0  0  0  0  0
    2.6622   -0.5333    0.0000 C   0  0  0  0  0  0  0  0  0  0  0  0
    1.5722    0.4972    0.0000 N   0  0  0  0  0  0  0  0  0  0  0  0
    1.9196    1.9564    0.0000 N   0  0  0  0  0  0  0  0  0  0  0  0
    3.3570    2.3851    0.0000 C   0  0  0  0  0  0  0  0  0  0  0  0
    3.7045    3.8444    0.0000 O   0  0  0  0  0  0  0  0  0  0  0  0
    4.4470    1.3547    0.0000 C   0  0  0  0  0  0  0  0  0  0  0  0
    4.0996   -0.1046    0.0000 C   0  0  0  0  0  0  0  0  0  0  0  0
    5.1896   -1.1350    0.0000 C   0  0  0  0  0  0  0  0  0  0  0  0
    6.6270   -0.7063    0.0000 C   0  0  0  0  0  0  0  0  0  0  0  0
    6.9745    0.7529    0.0000 C   0  0  0  0  0  0  0  0  0  0  0  0
    5.8845    1.7834    0.0000 C   0  0  0  0  0  0  0  0  0  0  0  0
   -0.2127   -1.3907    0.0000 C   0  0  0  0  0  0  0  0  0  0  0  0
  1  2  2  0
  2  3  1  0
  2  4  1  0
  4  5  2  0
  5  6  1  0
  6  7  2  0
  7  8  1  0
  8  9  1  0
  9 10  2  0
  9 11  1  0
 11 12  2  0
 12 13  1  0
 13 14  2  0
 14 15  1  0
 15 16  1  0
 16 17  1  0
 17 18  2  0
 18 19  1  0
 19 20  1  0
 20 21  2  0
 20 22  1  0
 22 23  2  0
 23 24  1  0
 24 25  1  0
 25 26  1  0
 26 27  1  0
 15 28  2  0
  7  4  1  0
 28 11  1  0
 23 17  1  0
 27 22  1  0
M  END
$$$$

     RDKit          2D

 35 39  0  0  0  0  0  0  0  0999 V2000
   -4.4963   -3.8260    0.0000 C   0  0  0  0  0  0  0  0  0  0  0  0
   -4.8954   -2.3801    0.0000 C   0  0  0  0  0  0  0  0  0  0  0  0
   -3.8427   -1.3115    0.0000 O   0  0  0  0  0  0  0  0  0  0  0  0
   -4.2419    0.1345    0.0000 C   0  0  0  0  0  0  0  0  0  0  0  0
   -5.6462    0.6615    0.0000 C   0  0  0  0  0  0  0  0  0  0  0  0
   -5.5790    2.1600    0.0000 C   0  0  0  0  0  0  0  0  0  0  0  0
   -4.1330    2.5591    0.0000 N   0  0  0  0  0  0  0  0  0  0  0  0
   -3.3067    1.3072    0.0000 C   0  0  0  0  0  0  0  0  0  0  0  0
   -2.2381    0.2546    0.0000 C   0  0  0  0  0  0  0  0  0  0  0  0
   -0.7921    0.6537    0.0000 O   0  0  0  0  0  0  0  0  0  0  0  0
   -2.6154   -1.1972    0.0000 N   0  0  0  0  0  0  0  0  0  0  0  0
   -1.5468   -2.2498    0.0000 C   0  0  0  0  0  0  0  0  0  0  0  0
   -1.9241   -3.7016    0.0000 C   0  0  0  0  0  0  0  0  0  0  0  0
   -0.8555   -4.7543    0.0000 C   0  0  0  0  0  0  0  0  0  0  0  0
    0.5904   -4.3552    0.0000 C   0  0  0  0  0  0  0  0  0  0  0  0
    0.9678   -2.9034    0.0000 C   0  0  0  0  0  0  0  0  0  0  0  0
    2.4137   -2.5043    0.0000 C   0  0  0  0  0  0  0  0  0  0  0  0
    2.7910   -1.0525    0.0000 C   0  0  0  0  0  0  0  0  0  0  0  0
    1.7224    0.0001    0.0000 N   0  0  0  0  0  0  0  0  0  0  0  0
    2.0997    1.4519    0.0000 N   0  0  0  0  0  0  0  0  0  0  0  0
    3.5457    1.8510    0.0000 C   0  0  0  0  0  0  0  0  0  0  0  0
    3.9230    3.3028    0.0000 O   0  0  0  0  0  0  0  0  0  0  0  0
    4.6143    0.7984    0.0000 C   0  0  0  0  0  0  0  0  0  0  0  0
    4.2369   -0.6534    0.0000 C   0  0  0  0  0  0  0  0  0  0  0  0
    5.3055   -1.7061    0.0000 C   0  0  0  0  0  0  0  0  0  0  0  0
    6.7515   -1.3070    0.0000 C   0  0  0  0  0  0  0  0  0  0  0  0
    7.1288    0.1448    0.0000 C   0  0  0  0  0  0  0  0  0  0  0  0
    6.0602    1.1975    0.0000 C   0  0  0  0  0  0  0  0  0  0  0  0
   -0.1009   -1.8507    0.0000 C   0  0  0  0  0  0  0  0  0  0  0  0
   -2.1481    2.2600    0.0000 C   0  0  0  0  0  0  0  0  0  0  0  0
   -0.7437    1.7329    0.0000 C   0  0  0  0  0  0  0  0  0  0  0  0
    0.4149    2.6857    0.0000 C   0  0  0  0  0  0  0  0  0  0  0  0
    0.1691    4.1654    0.0000 C   0  0  0  0  0  0  0  0  0  0  0  0
   -1.2353    4.6924    0.0000 C   0  0  0  0  0  0  0  0  0  0  0  0
   -2.3938    3.7397    0.0000 C   0  0  0  0  0  0  0  0  0  0  0  0
  1  2  1  0
  2  3  1  0
  3  4  1  0
  4  5  2  0
  5  6  1  0
  6  7  2  0
  7  8  1  0
  8  9  1  0
  9 10  2  0
  9 11  1  0
 11 12  1  0
 12 13  2  0
 13 14  1  0
 14 15  2  0
 15 16  1  0
 16 17  1  0
 17 18  1  0
 18 19  2  0
 19 20  1  0
 20 21  1  0
 21 22  2  0
 21 23  1  0
 23 24  2  0
 24 25  1  0
 25 26  1  0
 26 27  1  0
 27 28  1  0
 16 29  2  0
  8 30  1  0
 30 31  2  0
 31 32  1  0
 32 33  2  0
 33 34  1  0
 34 35  2  0
  8  4  1  0
 29 12  1  0
 35 30  1  0
 24 18  1  0
 28 23  1  0
M  END
$$$$

     RDKit          2D

 33 37  0  0  0  0  0  0  0  0999 V2000
   -4.1054    4.1235    0.0000 N   0  0  0  0  0  0  0  0  0  0  0  0
   -4.5163    2.6809    0.0000 C   0  0  0  0  0  0  0  0  0  0  0  0
   -5.9712    2.3156    0.0000 O   0  0  0  0  0  0  0  0  0  0  0  0
   -3.4725    1.6037    0.0000 C   0  0  0  0  0  0  0  0  0  0  0  0
   -2.0177    1.9691    0.0000 C   0  0  0  0  0  0  0  0  0  0  0  0
   -0.9738    0.8919    0.0000 C   0  0  0  0  0  0  0  0  0  0  0  0
   -1.3848   -0.5507    0.0000 C   0  0  0  0  0  0  0  0  0  0  0  0
   -0.3410   -1.6280    0.0000 C   0  0  0  0  0  0  0  0  0  0  0  0
   -0.7520   -3.0706    0.0000 C   0  0  0  0  0  0  0  0  0  0  0  0
    0.2919   -4.1478    0.0000 C   0  0  0  0  0  0  0  0  0  0  0  0
    1.7467   -3.7824    0.0000 C   0  0  0  0  0  0  0  0  0  0  0  0
    2.1577   -2.3398    0.0000 C   0  0  0  0  0  0  0  0  0  0  0  0
    3.6125   -1.9744    0.0000 C   0  0  0  0  0  0  0  0  0  0  0  0
    4.0235   -0.5318    0.0000 C   0  0  0  0  0  0  0  0  0  0  0  0
    2.9796    0.5454    0.0000 N   0  0  0  0  0  0  0  0  0  0  0  0
    3.3906    1.9880    0.0000 N   0  0  0  0  0  0  0  0  0  0  0  0
    4.8454    2.3534    0.0000 C   0  0  0  0  0  0  0  0  0  0  0  0
    5.2564    3.7960    0.0000 O   0  0  0  0  0  0  0  0  0  0  0  0
    5.8893    1.2762    0.0000 C   0  0  0  0  0  0  0  0  0  0  0  0
    5.4783   -0.1664    0.0000 C   0  0  0  0  0  0  0  0  0  0  0  0
    6.5221   -1.2437    0.0000 C   0  0  0  0  0  0  0  0  0  0  0  0
    7.9769   -0.8783    0.0000 C   0  0  0  0  0  0  0  0  0  0  0  0
    8.3879    0.5643    0.0000 C   0  0  0  0  0  0  0  0  0  0  0  0
    7.3441    1.6415    0.0000 C   0  0  0  0  0  0  0  0  0  0  0  0
    1.1138   -1.2626    0.0000 C   0  0  0  0  0  0  0  0  0  0  0  0
   -2.8397   -0.9161    0.0000 C   0  0  0  0  0  0  0  0  0  0  0  0
   -3.8835    0.1611    0.0000 C   0  0  0  0  0  0  0  0  0  0  0  0
   -5.3383   -0.2043    0.0000 C   0  0  0  0  0  0  0  0  0  0  0  0
   -6.3821    0.8730    0.0000 C   0  0  0  0  0  0  0  0  0  0  0  0
   -7.8370    0.5076    0.0000 C   0  0  0  0  0  0  0  0  0  0  0  0
   -8.2479   -0.9350    0.0000 C   0  0  0  0  0  0  0  0  0  0  0  0
   -7.2041   -2.0122    0.0000 C   0  0  0  0  0  0  0  0  0  0  0  0
   -5.7493   -1.6469    0.0000 C   0  0  0  0  0  0  0  0  0  0  0  0
  1  2  1  0
  2  3  2  0
  2  4  1  0
  4  5  2  0
  5  6  1  0
  6  7  2  0
  7  8  1  0
  8  9  2  0
  9 10  1  0
 10 11  2  0
 11 12  1  0
 12 13  1  0
 13 14  1  0
 14 15  2  0
 15 16  1  0
 16 17  1  0
 17 18  2  0
 17 19  1  0
 19 20  2  0
 20 21  1  0
 21 22  1  0
 22 23  1  0
 23 24  1  0
 12 25  2  0
  7 26  1  0
 26 27  2  0
 27 28  1  0
 28 29  2  0
 29 30  1  0
 30 31  2  0
 31 32  1  0
 32 33  2  0
 27  4  1  0
 33 28  1  0
 25  8  1  0
 20 14  1  0
 24 19  1  0
M  END
$$$$

     RDKit          2D

 19 21  0  0  0  0  0  0  0  0999 V2000
   -6.2258    1.5181    0.0000 C   0  0  0  0  0  0  0  0  0  0  0  0
   -5.8983    0.0543    0.0000 C   0  0  0  0  0  0  0  0  0  0  0  0
   -4.4668   -0.3940    0.0000 C   0  0  0  0  0  0  0  0  0  0  0  0
   -3.9880   -1.8155    0.0000 C   0  0  0  0  0  0  0  0  0  0  0  0
   -2.4881   -1.7994    0.0000 C   0  0  0  0  0  0  0  0  0  0  0  0
   -2.0399   -0.3680    0.0000 N   0  0  0  0  0  0  0  0  0  0  0  0
   -0.6184    0.1108    0.0000 C   0  0  0  0  0  0  0  0  0  0  0  0
    0.6045   -0.7578    0.0000 N   0  0  0  0  0  0  0  0  0  0  0  0
    1.8086    0.1368    0.0000 C   0  0  0  0  0  0  0  0  0  0  0  0
    3.2790   -0.1594    0.0000 C   0  0  0  0  0  0  0  0  0  0  0  0
    3.7578   -1.5809    0.0000 C   0  0  0  0  0  0  0  0  0  0  0  0
    5.2283   -1.8771    0.0000 N   0  0  0  0  0  0  0  0  0  0  0  0
    2.7661   -2.7063    0.0000 O   0  0  0  0  0  0  0  0  0  0  0  0
    4.2707    0.9660    0.0000 C   0  0  0  0  0  0  0  0  0  0  0  0
    3.7920    2.3876    0.0000 C   0  0  0  0  0  0  0  0  0  0  0  0
    2.3215    2.6837    0.0000 C   0  0  0  0  0  0  0  0  0  0  0  0
    1.3298    1.5583    0.0000 C   0  0  0  0  0  0  0  0  0  0  0  0
   -0.1701    1.5423    0.0000 N   0  0  0  0  0  0  0  0  0  0  0  0
   -3.2628    0.5007    0.0000 C   0  0  0  0  0  0  0  0  0  0  0  0
  1  2  1  0
  2  3  1  0
  3  4  1  0
  4  5  1  0
  5  6  1  0
  6  7  1  0
  7  8  2  0
  8  9  1  0
  9 10  2  0
 10 11  1  0
 11 12  1  0
 11 13  2  0
 10 14  1  0
 14 15  2  0
 15 16  1  0
 16 17  2  0
 17 18  1  0
  6 19  1  0
 19  3  1  0
 18  7  1  0
 17  9  1  0
M  END
$$$$

     RDKit          2D

 35 39  0  0  0  0  0  0  0  0999 V2000
   -7.9167   -1.8704    0.0000 O   0  0  0  0  0  0  0  0  0  0  0  0
   -6.8664   -0.7995    0.0000 C   0  0  0  0  0  0  0  0  0  0  0  0
   -7.2687    0.6456    0.0000 C   0  0  0  0  0  0  0  0  0  0  0  0
   -6.2184    1.7165    0.0000 C   0  0  0  0  0  0  0  0  0  0  0  0
   -6.6207    3.1615    0.0000 C   0  0  0  0  0  0  0  0  0  0  0  0
   -8.0733    3.5356    0.0000 N   0  0  0  0  0  0  0  0  0  0  0  0
   -9.1236    2.4647    0.0000 C   0  0  0  0  0  0  0  0  0  0  0  0
   -8.7213    1.0197    0.0000 N   0  0  0  0  0  0  0  0  0  0  0  0
   -5.4138   -1.1736    0.0000 N   0  0  0  0  0  0  0  0  0  0  0  0
   -5.0115   -2.6186    0.0000 C   0  0  0  0  0  0  0  0  0  0  0  0
   -3.5589   -2.9927    0.0000 C   0  0  0  0  0  0  0  0  0  0  0  0
   -2.5086   -1.9218    0.0000 N   0  0  0  0  0  0  0  0  0  0  0  0
   -1.0560   -2.2959    0.0000 C   0  0  0  0  0  0  0  0  0  0  0  0
   -0.6537   -3.7410    0.0000 O   0  0  0  0  0  0  0  0  0  0  0  0
   -0.0057   -1.2250    0.0000 C   0  0  0  0  0  0  0  0  0  0  0  0
    1.4469   -1.5991    0.0000 C   0  0  0  0  0  0  0  0  0  0  0  0
    2.4972   -0.5282    0.0000 C   0  0  0  0  0  0  0  0  0  0  0  0
    3.9498   -0.9023    0.0000 C   0  0  0  0  0  0  0  0  0  0  0  0
    5.0001    0.1687    0.0000 C   0  0  0  0  0  0  0  0  0  0  0  0
    4.5978    1.6137    0.0000 N   0  0  0  0  0  0  0  0  0  0  0  0
    5.6480    2.6846    0.0000 N   0  0  0  0  0  0  0  0  0  0  0  0
    7.1006    2.3105    0.0000 C   0  0  0  0  0  0  0  0  0  0  0  0
    8.1509    3.3815    0.0000 O   0  0  0  0  0  0  0  0  0  0  0  0
    7.5030    0.8655    0.0000 C   0  0  0  0  0  0  0  0  0  0  0  0
    6.4527   -0.2054    0.0000 C   0  0  0  0  0  0  0  0  0  0  0  0
    6.8550   -1.6505    0.0000 N   0  0  0  0  0  0  0  0  0  0  0  0
    8.3076   -2.0246    0.0000 C   0  0  0  0  0  0  0  0  0  0  0  0
    9.3579   -0.9537    0.0000 C   0  0  0  0  0  0  0  0  0  0  0  0
    8.9556    0.4914    0.0000 C   0  0  0  0  0  0  0  0  0  0  0  0
    2.0949    0.9169    0.0000 C   0  0  0  0  0  0  0  0  0  0  0  0
    0.6423    1.2910    0.0000 C   0  0  0  0  0  0  0  0  0  0  0  0
   -0.4080    0.2201    0.0000 C   0  0  0  0  0  0  0  0  0  0  0  0
   -1.8606    0.5942    0.0000 F   0  0  0  0  0  0  0  0  0  0  0  0
   -2.9109   -0.4768    0.0000 C   0  0  0  0  0  0  0  0  0  0  0  0
   -4.3635   -0.1027    0.0000 C   0  0  0  0  0  0  0  0  0  0  0  0
  1  2  2  0
  2  3  1  0
  3  4  2  0
  4  5  1  0
  5  6  2  0
  6  7  1  0
  7  8  2  0
  2  9  1  0
  9 10  1  0
 10 11  1  0
 11 12  1  0
 12 13  1  0
 13 14  2  0
 13 15  1  0
 15 16  2  0
 16 17  1  0
 17 18  1  0
 18 19  1  0
 19 20  2  0
 20 21  1  0
 21 22  1  0
 22 23  2  0
 22 24  1  0
 24 25  2  0
 25 26  1  0
 26 27  1  0
 27 28  1  0
 28 29  1  0
 17 30  2  0
 30 31  1  0
 31 32  2  0
 32 33  1  0
 12 34  1  0
 34 35  1  0
  8  3  1  0
 35  9  1  0
 32 15  1  0
 25 19  1  0
 29 24  1  0
M  END
$$$$

     RDKit          2D

 20 22  0  0  0  0  0  0  0  0999 V2000
   -5.0958   -2.5987    0.0000 C   0  0  0  0  0  0  0  0  0  0  0  0
   -4.7470   -1.1398    0.0000 C   0  0  0  0  0  0  0  0  0  0  0  0
   -5.8360   -0.1083    0.0000 C   0  0  0  0  0  0  0  0  0  0  0  0
   -5.4872    1.3506    0.0000 C   0  0  0  0  0  0  0  0  0  0  0  0
   -4.0493    1.7779    0.0000 C   0  0  0  0  0  0  0  0  0  0  0  0
   -2.9603    0.7464    0.0000 C   0  0  0  0  0  0  0  0  0  0  0  0
   -1.5225    1.1737    0.0000 C   0  0  0  0  0  0  0  0  0  0  0  0
   -0.4335    0.1422    0.0000 C   0  0  0  0  0  0  0  0  0  0  0  0
    1.0044    0.5695    0.0000 C   0  0  0  0  0  0  0  0  0  0  0  0
    1.3532    2.0284    0.0000 N   0  0  0  0  0  0  0  0  0  0  0  0
    2.7910    2.4558    0.0000 N   0  0  0  0  0  0  0  0  0  0  0  0
    3.8800    1.4242    0.0000 C   0  0  0  0  0  0  0  0  0  0  0  0
    5.3179    1.8516    0.0000 O   0  0  0  0  0  0  0  0  0  0  0  0
    3.5312   -0.0346    0.0000 C   0  0  0  0  0  0  0  0  0  0  0  0
    2.0934   -0.4620    0.0000 C   0  0  0  0  0  0  0  0  0  0  0  0
    1.7445   -1.9209    0.0000 C   0  0  0  0  0  0  0  0  0  0  0  0
    2.8335   -2.9524    0.0000 C   0  0  0  0  0  0  0  0  0  0  0  0
    4.2714   -2.5251    0.0000 C   0  0  0  0  0  0  0  0  0  0  0  0
    4.6202   -1.0662    0.0000 C   0  0  0  0  0  0  0  0  0  0  0  0
   -3.3092   -0.7125    0.0000 C   0  0  0  0  0  0  0  0  0  0  0  0
  1  2  1  0
  2  3  2  0
  3  4  1  0
  4  5  2  0
  5  6  1  0
  6  7  1  0
  7  8  1  0
  8  9  1  0
  9 10  2  0
 10 11  1  0
 11 12  1  0
 12 13  2  0
 12 14  1  0
 14 15  2  0
 15 16  1  0
 16 17  1  0
 17 18  1  0
 18 19  1  0
  6 20  2  0
 20  2  1  0
 15  9  1  0
 19 14  1  0
M  END
$$$$

     RDKit          2D

 17 19  0  0  0  0  0  0  0  0999 V2000
   -4.3238   -2.2082    0.0000 N   0  0  0  0  0  0  0  0  0  0  0  0
   -2.8883   -1.7727    0.0000 C   0  0  0  0  0  0  0  0  0  0  0  0
   -1.7936   -2.7982    0.0000 O   0  0  0  0  0  0  0  0  0  0  0  0
   -2.5477   -0.3119    0.0000 C   0  0  0  0  0  0  0  0  0  0  0  0
   -3.6425    0.7135    0.0000 C   0  0  0  0  0  0  0  0  0  0  0  0
   -3.3018    2.1743    0.0000 C   0  0  0  0  0  0  0  0  0  0  0  0
   -1.8664    2.6097    0.0000 C   0  0  0  0  0  0  0  0  0  0  0  0
   -0.7716    1.5843    0.0000 C   0  0  0  0  0  0  0  0  0  0  0  0
    0.7229    1.7117    0.0000 N   0  0  0  0  0  0  0  0  0  0  0  0
    1.3060    0.3297    0.0000 C   0  0  0  0  0  0  0  0  0  0  0  0
    2.7668   -0.0110    0.0000 C   0  0  0  0  0  0  0  0  0  0  0  0
    3.9010    0.9706    0.0000 C   0  0  0  0  0  0  0  0  0  0  0  0
    5.1851    0.1953    0.0000 C   0  0  0  0  0  0  0  0  0  0  0  0
    4.8444   -1.2656    0.0000 N   0  0  0  0  0  0  0  0  0  0  0  0
    3.3499   -1.3930    0.0000 C   0  0  0  0  0  0  0  0  0  0  0  0
    0.1718   -0.6519    0.0000 N   0  0  0  0  0  0  0  0  0  0  0  0
   -1.1123    0.1235    0.0000 C   0  0  0  0  0  0  0  0  0  0  0  0
  1  2  1  0
  2  3  2  0
  2  4  1  0
  4  5  2  0
  5  6  1  0
  6  7  2  0
  7  8  1  0
  8  9  1  0
  9 10  1  0
 10 11  1  0
 11 12  1  0
 12 13  1  0
 13 14  1  0
 14 15  1  0
 10 16  2  0
 16 17  1  0
 17  4  1  0
 17  8  2  0
 15 11  1  0
M  END
$$$$

     RDKit          2D

 26 28  0  0  0  0  0  0  0  0999 V2000
   -4.4384    5.7265    0.0000 O   0  0  0  0  0  0  0  0  0  0  0  0
   -4.8188    4.2756    0.0000 C   0  0  0  0  0  0  0  0  0  0  0  0
   -3.7525    3.2206    0.0000 N   0  0  0  0  0  0  0  0  0  0  0  0
   -4.1330    1.7697    0.0000 C   0  0  0  0  0  0  0  0  0  0  0  0
   -3.0667    0.7147    0.0000 C   0  0  0  0  0  0  0  0  0  0  0  0
   -3.4472   -0.7362    0.0000 C   0  0  0  0  0  0  0  0  0  0  0  0
   -4.8939   -1.1322    0.0000 O   0  0  0  0  0  0  0  0  0  0  0  0
   -2.3808   -1.7912    0.0000 C   0  0  0  0  0  0  0  0  0  0  0  0
   -0.9340   -1.3952    0.0000 C   0  0  0  0  0  0  0  0  0  0  0  0
    0.1323   -2.4502    0.0000 C   0  0  0  0  0  0  0  0  0  0  0  0
    1.5791   -2.0542    0.0000 C   0  0  0  0  0  0  0  0  0  0  0  0
    1.9595   -0.6033    0.0000 C   0  0  0  0  0  0  0  0  0  0  0  0
    0.8932    0.4517    0.0000 N   0  0  0  0  0  0  0  0  0  0  0  0
    1.2737    1.9026    0.0000 N   0  0  0  0  0  0  0  0  0  0  0  0
    2.7205    2.2986    0.0000 C   0  0  0  0  0  0  0  0  0  0  0  0
    3.1010    3.7495    0.0000 O   0  0  0  0  0  0  0  0  0  0  0  0
    3.7868    1.2436    0.0000 C   0  0  0  0  0  0  0  0  0  0  0  0
    3.4063   -0.2073    0.0000 C   0  0  0  0  0  0  0  0  0  0  0  0
    4.4726   -1.2623    0.0000 N   0  0  0  0  0  0  0  0  0  0  0  0
    5.9194   -0.8663    0.0000 C   0  0  0  0  0  0  0  0  0  0  0  0
    6.2999    0.5846    0.0000 C   0  0  0  0  0  0  0  0  0  0  0  0
    5.2336    1.6396    0.0000 C   0  0  0  0  0  0  0  0  0  0  0  0
   -0.2482   -3.9012    0.0000 C   0  0  0  0  0  0  0  0  0  0  0  0
   -1.6950   -4.2971    0.0000 C   0  0  0  0  0  0  0  0  0  0  0  0
   -2.7613   -3.2422    0.0000 C   0  0  0  0  0  0  0  0  0  0  0  0
   -4.2081   -3.6381    0.0000 F   0  0  0  0  0  0  0  0  0  0  0  0
  1  2  2  0
  2  3  1  0
  3  4  1  0
  4  5  1  0
  5  6  1  0
  6  7  2  0
  6  8  1  0
  8  9  2  0
  9 10  1  0
 10 11  1  0
 11 12  1  0
 12 13  2  0
 13 14  1  0
 14 15  1  0
 15 16  2  0
 15 17  1  0
 17 18  2  0
 18 19  1  0
 19 20  1  0
 20 21  1  0
 21 22  1  0
 10 23  2  0
 23 24  1  0
 24 25  2  0
 25 26  1  0
 25  8  1  0
 18 12  1  0
 22 17  1  0
M  END
$$$$

     RDKit          2D

 28 31  0  0  0  0  0  0  0  0999 V2000
   -4.4212    0.9332    0.0000 O   0  0  0  0  0  0  0  0  0  0  0  0
   -4.3214   -0.5635    0.0000 C   0  0  0  0  0  0  0  0  0  0  0  0
   -2.9753   -1.2254    0.0000 N   0  0  0  0  0  0  0  0  0  0  0  0
   -1.7291   -0.3906    0.0000 C   0  0  0  0  0  0  0  0  0  0  0  0
   -0.3830   -1.0525    0.0000 C   0  0  0  0  0  0  0  0  0  0  0  0
    0.8632   -0.2177    0.0000 C   0  0  0  0  0  0  0  0  0  0  0  0
    2.2093   -0.8796    0.0000 C   0  0  0  0  0  0  0  0  0  0  0  0
    3.4556   -0.0448    0.0000 C   0  0  0  0  0  0  0  0  0  0  0  0
    3.3557    1.4519    0.0000 N   0  0  0  0  0  0  0  0  0  0  0  0
    4.6020    2.2867    0.0000 N   0  0  0  0  0  0  0  0  0  0  0  0
    5.9481    1.6248    0.0000 C   0  0  0  0  0  0  0  0  0  0  0  0
    7.1943    2.4596    0.0000 O   0  0  0  0  0  0  0  0  0  0  0  0
    6.0479    0.1281    0.0000 C   0  0  0  0  0  0  0  0  0  0  0  0
    4.8016   -0.7067    0.0000 C   0  0  0  0  0  0  0  0  0  0  0  0
    4.9015   -2.2033    0.0000 C   0  0  0  0  0  0  0  0  0  0  0  0
    6.2475   -2.8652    0.0000 C   0  0  0  0  0  0  0  0  0  0  0  0
    7.4938   -2.0304    0.0000 C   0  0  0  0  0  0  0  0  0  0  0  0
    7.3939   -0.5338    0.0000 C   0  0  0  0  0  0  0  0  0  0  0  0
    0.7634    1.2790    0.0000 C   0  0  0  0  0  0  0  0  0  0  0  0
   -0.5826    1.9409    0.0000 C   0  0  0  0  0  0  0  0  0  0  0  0
   -1.8289    1.1061    0.0000 C   0  0  0  0  0  0  0  0  0  0  0  0
   -3.1750    1.7680    0.0000 F   0  0  0  0  0  0  0  0  0  0  0  0
   -5.5676   -1.3983    0.0000 N   0  0  0  0  0  0  0  0  0  0  0  0
   -6.9137   -0.7364    0.0000 C   0  0  0  0  0  0  0  0  0  0  0  0
   -8.2404   -1.4363    0.0000 C   0  0  0  0  0  0  0  0  0  0  0  0
   -9.3160   -0.3909    0.0000 C   0  0  0  0  0  0  0  0  0  0  0  0
   -8.6541    0.9552    0.0000 C   0  0  0  0  0  0  0  0  0  0  0  0
   -7.1694    0.7417    0.0000 N   0  0  0  0  0  0  0  0  0  0  0  0
  1  2  2  0
  2  3  1  0
  3  4  1  0
  4  5  2  0
  5  6  1  0
  6  7  1  0
  7  8  1  0
  8  9  2  0
  9 10  1  0
 10 11  1  0
 11 12  2  0
 11 13  1  0
 13 14  2  0
 14 15  1  0
 15 16  1  0
 16 17  1  0
 17 18  1  0
  6 19  2  0
 19 20  1  0
 20 21  2  0
 21 22  1  0
  2 23  1  0
 23 24  1  0
 24 25  1  0
 25 26  1  0
 26 27  1  0
 27 28  1  0
 21  4  1  0
 28 24  1  0
 14  8  1  0
 18 13  1  0
M  END
$$$$

     RDKit          2D

 24 27  0  0  0  0  0  0  0  0999 V2000
   -6.4367   -2.6103    0.0000 N   0  0  0  0  0  0  0  0  0  0  0  0
   -5.0621   -2.0100    0.0000 C   0  0  0  0  0  0  0  0  0  0  0  0
   -3.8549   -2.9003    0.0000 O   0  0  0  0  0  0  0  0  0  0  0  0
   -4.8947   -0.5194    0.0000 C   0  0  0  0  0  0  0  0  0  0  0  0
   -6.1019    0.3710    0.0000 C   0  0  0  0  0  0  0  0  0  0  0  0
   -5.9344    1.8616    0.0000 C   0  0  0  0  0  0  0  0  0  0  0  0
   -4.5598    2.4619    0.0000 C   0  0  0  0  0  0  0  0  0  0  0  0
   -3.3526    1.5716    0.0000 C   0  0  0  0  0  0  0  0  0  0  0  0
   -1.8832    1.8729    0.0000 N   0  0  0  0  0  0  0  0  0  0  0  0
   -1.1425    0.5686    0.0000 C   0  0  0  0  0  0  0  0  0  0  0  0
    0.3482    0.4011    0.0000 C   0  0  0  0  0  0  0  0  0  0  0  0
    0.9485   -0.9735    0.0000 C   0  0  0  0  0  0  0  0  0  0  0  0
    2.4391   -1.1409    0.0000 C   0  0  0  0  0  0  0  0  0  0  0  0
    3.3294    0.0663    0.0000 C   0  0  0  0  0  0  0  0  0  0  0  0
    4.8200   -0.1012    0.0000 C   0  0  0  0  0  0  0  0  0  0  0  0
    5.4203   -1.4758    0.0000 C   0  0  0  0  0  0  0  0  0  0  0  0
    6.9110   -1.6433    0.0000 C   0  0  0  0  0  0  0  0  0  0  0  0
    7.8013   -0.4361    0.0000 C   0  0  0  0  0  0  0  0  0  0  0  0
    7.2010    0.9386    0.0000 N   0  0  0  0  0  0  0  0  0  0  0  0
    5.7104    1.1060    0.0000 C   0  0  0  0  0  0  0  0  0  0  0  0
    2.7291    1.4409    0.0000 C   0  0  0  0  0  0  0  0  0  0  0  0
    1.2385    1.6083    0.0000 C   0  0  0  0  0  0  0  0  0  0  0  0
   -2.1541   -0.5389    0.0000 N   0  0  0  0  0  0  0  0  0  0  0  0
   -3.5200    0.0809    0.0000 C   0  0  0  0  0  0  0  0  0  0  0  0
  1  2  1  0
  2  3  2  0
  2  4  1  0
  4  5  2  0
  5  6  1  0
  6  7  2  0
  7  8  1  0
  8  9  1  0
  9 10  1  0
 10 11  1  0
 11 12  2  0
 12 13  1  0
 13 14  2  0
 14 15  1  0
 15 16  1  0
 16 17  1  0
 17 18  1  0
 18 19  1  0
 19 20  1  0
 14 21  1  0
 21 22  2  0
 10 23  2  0
 23 24  1  0
 24  4  1  0
 24  8  2  0
 22 11  1  0
 20 15  1  0
M  END
$$$$

     RDKit          2D

 16 18  0  0  0  0  0  0  0  0999 V2000
   -4.0775   -2.1341    0.0000 N   0  0  0  0  0  0  0  0  0  0  0  0
   -2.6312   -1.7361    0.0000 C   0  0  0  0  0  0  0  0  0  0  0  0
   -1.5634   -2.7896    0.0000 O   0  0  0  0  0  0  0  0  0  0  0  0
   -2.2528   -0.2846    0.0000 C   0  0  0  0  0  0  0  0  0  0  0  0
   -3.3206    0.7689    0.0000 C   0  0  0  0  0  0  0  0  0  0  0  0
   -2.9422    2.2203    0.0000 C   0  0  0  0  0  0  0  0  0  0  0  0
   -1.4960    2.6184    0.0000 C   0  0  0  0  0  0  0  0  0  0  0  0
   -0.4282    1.5649    0.0000 C   0  0  0  0  0  0  0  0  0  0  0  0
    1.0692    1.6535    0.0000 N   0  0  0  0  0  0  0  0  0  0  0  0
    1.6162    0.2568    0.0000 C   0  0  0  0  0  0  0  0  0  0  0  0
    3.0677   -0.1216    0.0000 C   0  0  0  0  0  0  0  0  0  0  0  0
    3.8265   -1.4155    0.0000 N   0  0  0  0  0  0  0  0  0  0  0  0
    5.1204   -0.6568    0.0000 C   0  0  0  0  0  0  0  0  0  0  0  0
    4.3616    0.6372    0.0000 C   0  0  0  0  0  0  0  0  0  0  0  0
    0.4569   -0.6950    0.0000 N   0  0  0  0  0  0  0  0  0  0  0  0
   -0.8066    0.1134    0.0000 C   0  0  0  0  0  0  0  0  0  0  0  0
  1  2  1  0
  2  3  2  0
  2  4  1  0
  4  5  2  0
  5  6  1  0
  6  7  2  0
  7  8  1  0
  8  9  1  0
  9 10  1  0
 10 11  1  0
 11 12  2  0
 12 13  1  0
 13 14  2  0
 10 15  2  0
 15 16  1  0
 16  4  1  0
 16  8  2  0
 14 11  1  0
M  END
$$$$

     RDKit          2D

 31 34  0  0  0  0  0  0  0  0999 V2000
   -6.7173    4.3985    0.0000 C   0  0  0  0  0  0  0  0  0  0  0  0
   -7.2438    2.9939    0.0000 N   0  0  0  0  0  0  0  0  0  0  0  0
   -6.2907    1.8357    0.0000 C   0  0  0  0  0  0  0  0  0  0  0  0
   -4.8111    2.0819    0.0000 O   0  0  0  0  0  0  0  0  0  0  0  0
   -6.8172    0.4311    0.0000 C   0  0  0  0  0  0  0  0  0  0  0  0
   -5.8641   -0.7272    0.0000 C   0  0  0  0  0  0  0  0  0  0  0  0
   -6.2409   -2.1791    0.0000 C   0  0  0  0  0  0  0  0  0  0  0  0
   -4.9765   -2.9861    0.0000 C   0  0  0  0  0  0  0  0  0  0  0  0
   -3.8183   -2.0330    0.0000 N   0  0  0  0  0  0  0  0  0  0  0  0
   -2.3664   -2.4098    0.0000 C   0  0  0  0  0  0  0  0  0  0  0  0
   -1.9668   -3.8556    0.0000 O   0  0  0  0  0  0  0  0  0  0  0  0
   -1.3141   -1.3408    0.0000 C   0  0  0  0  0  0  0  0  0  0  0  0
    0.1378   -1.7177    0.0000 C   0  0  0  0  0  0  0  0  0  0  0  0
    1.1901   -0.6487    0.0000 C   0  0  0  0  0  0  0  0  0  0  0  0
    2.6420   -1.0255    0.0000 C   0  0  0  0  0  0  0  0  0  0  0  0
    3.6943    0.0435    0.0000 C   0  0  0  0  0  0  0  0  0  0  0  0
    3.2947    1.4892    0.0000 N   0  0  0  0  0  0  0  0  0  0  0  0
    4.3470    2.5582    0.0000 N   0  0  0  0  0  0  0  0  0  0  0  0
    5.7989    2.1814    0.0000 C   0  0  0  0  0  0  0  0  0  0  0  0
    6.8511    3.2504    0.0000 O   0  0  0  0  0  0  0  0  0  0  0  0
    6.1985    0.7356    0.0000 C   0  0  0  0  0  0  0  0  0  0  0  0
    5.1462   -0.3334    0.0000 C   0  0  0  0  0  0  0  0  0  0  0  0
    5.5458   -1.7792    0.0000 N   0  0  0  0  0  0  0  0  0  0  0  0
    6.9977   -2.1560    0.0000 C   0  0  0  0  0  0  0  0  0  0  0  0
    8.0500   -1.0870    0.0000 C   0  0  0  0  0  0  0  0  0  0  0  0
    7.6504    0.3588    0.0000 C   0  0  0  0  0  0  0  0  0  0  0  0
    0.7905    0.7971    0.0000 C   0  0  0  0  0  0  0  0  0  0  0  0
   -0.6614    1.1739    0.0000 C   0  0  0  0  0  0  0  0  0  0  0  0
   -1.7137    0.1050    0.0000 C   0  0  0  0  0  0  0  0  0  0  0  0
   -3.1656    0.4818    0.0000 F   0  0  0  0  0  0  0  0  0  0  0  0
   -4.3668   -0.6369    0.0000 C   0  0  0  0  0  0  0  0  0  0  0  0
  1  2  1  0
  2  3  1  0
  3  4  2  0
  3  5  1  0
  5  6  1  0
  6  7  1  0
  7  8  1  0
  8  9  1  0
  9 10  1  0
 10 11  2  0
 10 12  1  0
 12 13  2  0
 13 14  1  0
 14 15  1  0
 15 16  1  0
 16 17  2  0
 17 18  1  0
 18 19  1  0
 19 20  2  0
 19 21  1  0
 21 22  2  0
 22 23  1  0
 23 24  1  0
 24 25  1  0
 25 26  1  0
 14 27  2  0
 27 28  1  0
 28 29  2  0
 29 30  1  0
  9 31  1  0
 31  6  1  0
 29 12  1  0
 22 16  1  0
 26 21  1  0
M  END
$$$$

     RDKit          2D

 26 29  0  0  0  0  0  0  0  0999 V2000
   -3.0905   -2.4897    0.0000 O   0  0  0  0  0  0  0  0  0  0  0  0
   -4.3305   -1.6457    0.0000 C   0  0  0  0  0  0  0  0  0  0  0  0
   -5.6815   -2.2975    0.0000 O   0  0  0  0  0  0  0  0  0  0  0  0
   -6.9215   -1.4534    0.0000 C   0  0  0  0  0  0  0  0  0  0  0  0
   -6.8105    0.0425    0.0000 C   0  0  0  0  0  0  0  0  0  0  0  0
   -5.4595    0.6943    0.0000 C   0  0  0  0  0  0  0  0  0  0  0  0
   -4.2195   -0.1498    0.0000 N   0  0  0  0  0  0  0  0  0  0  0  0
   -2.8686    0.5021    0.0000 C   0  0  0  0  0  0  0  0  0  0  0  0
   -1.6286   -0.3420    0.0000 C   0  0  0  0  0  0  0  0  0  0  0  0
   -0.2776    0.3098    0.0000 C   0  0  0  0  0  0  0  0  0  0  0  0
    0.9624   -0.5342    0.0000 C   0  0  0  0  0  0  0  0  0  0  0  0
    2.3133    0.1176    0.0000 C   0  0  0  0  0  0  0  0  0  0  0  0
    2.4243    1.6135    0.0000 N   0  0  0  0  0  0  0  0  0  0  0  0
    3.7753    2.2654    0.0000 N   0  0  0  0  0  0  0  0  0  0  0  0
    5.0153    1.4213    0.0000 C   0  0  0  0  0  0  0  0  0  0  0  0
    6.3662    2.0731    0.0000 O   0  0  0  0  0  0  0  0  0  0  0  0
    4.9043   -0.0746    0.0000 C   0  0  0  0  0  0  0  0  0  0  0  0
    3.5533   -0.7264    0.0000 C   0  0  0  0  0  0  0  0  0  0  0  0
    3.4424   -2.2223    0.0000 N   0  0  0  0  0  0  0  0  0  0  0  0
    4.6823   -3.0664    0.0000 C   0  0  0  0  0  0  0  0  0  0  0  0
    6.0333   -2.4145    0.0000 C   0  0  0  0  0  0  0  0  0  0  0  0
    6.1443   -0.9186    0.0000 C   0  0  0  0  0  0  0  0  0  0  0  0
   -0.1666    1.8057    0.0000 C   0  0  0  0  0  0  0  0  0  0  0  0
   -1.4066    2.6498    0.0000 C   0  0  0  0  0  0  0  0  0  0  0  0
   -2.7576    1.9980    0.0000 C   0  0  0  0  0  0  0  0  0  0  0  0
   -3.9976    2.8420    0.0000 F   0  0  0  0  0  0  0  0  0  0  0  0
  1  2  2  0
  2  3  1  0
  3  4  1  0
  4  5  1  0
  5  6  1  0
  6  7  1  0
  7  8  1  0
  8  9  2  0
  9 10  1  0
 10 11  1  0
 11 12  1  0
 12 13  2  0
 13 14  1  0
 14 15  1  0
 15 16  2  0
 15 17  1  0
 17 18  2  0
 18 19  1  0
 19 20  1  0
 20 21  1  0
 21 22  1  0
 10 23  2  0
 23 24  1  0
 24 25  2  0
 25 26  1  0
  7  2  1  0
 25  8  1  0
 18 12  1  0
 22 17  1  0
M  END
$$$$

     RDKit          2D

 31 34  0  0  0  0  0  0  0  0999 V2000
   -9.0755   -0.6080    0.0000 C   0  0  0  0  0  0  0  0  0  0  0  0
   -7.7455   -1.3015    0.0000 S   0  0  0  0  0  0  0  0  0  0  0  0
   -7.6811   -2.8002    0.0000 O   0  0  0  0  0  0  0  0  0  0  0  0
   -6.4798   -0.4965    0.0000 C   0  0  0  0  0  0  0  0  0  0  0  0
   -6.5443    1.0022    0.0000 C   0  0  0  0  0  0  0  0  0  0  0  0
   -5.2786    1.8073    0.0000 C   0  0  0  0  0  0  0  0  0  0  0  0
   -5.3430    3.3059    0.0000 F   0  0  0  0  0  0  0  0  0  0  0  0
   -3.9486    1.1137    0.0000 C   0  0  0  0  0  0  0  0  0  0  0  0
   -3.8842   -0.3849    0.0000 C   0  0  0  0  0  0  0  0  0  0  0  0
   -2.5541   -1.0784    0.0000 C   0  0  0  0  0  0  0  0  0  0  0  0
   -2.4897   -2.5770    0.0000 O   0  0  0  0  0  0  0  0  0  0  0  0
   -1.2885   -0.2733    0.0000 C   0  0  0  0  0  0  0  0  0  0  0  0
    0.0416   -0.9668    0.0000 C   0  0  0  0  0  0  0  0  0  0  0  0
    1.3072   -0.1618    0.0000 C   0  0  0  0  0  0  0  0  0  0  0  0
    2.6372   -0.8553    0.0000 C   0  0  0  0  0  0  0  0  0  0  0  0
    3.9029   -0.0502    0.0000 C   0  0  0  0  0  0  0  0  0  0  0  0
    3.8385    1.4484    0.0000 N   0  0  0  0  0  0  0  0  0  0  0  0
    5.1041    2.2535    0.0000 N   0  0  0  0  0  0  0  0  0  0  0  0
    6.4341    1.5600    0.0000 C   0  0  0  0  0  0  0  0  0  0  0  0
    7.6998    2.3651    0.0000 O   0  0  0  0  0  0  0  0  0  0  0  0
    6.4985    0.0614    0.0000 C   0  0  0  0  0  0  0  0  0  0  0  0
    5.2329   -0.7437    0.0000 C   0  0  0  0  0  0  0  0  0  0  0  0
    5.2973   -2.2423    0.0000 N   0  0  0  0  0  0  0  0  0  0  0  0
    6.6274   -2.9359    0.0000 C   0  0  0  0  0  0  0  0  0  0  0  0
    7.8930   -2.1308    0.0000 C   0  0  0  0  0  0  0  0  0  0  0  0
    7.8286   -0.6322    0.0000 C   0  0  0  0  0  0  0  0  0  0  0  0
    1.2428    1.3369    0.0000 C   0  0  0  0  0  0  0  0  0  0  0  0
   -0.0873    2.0304    0.0000 C   0  0  0  0  0  0  0  0  0  0  0  0
   -1.3529    1.2253    0.0000 C   0  0  0  0  0  0  0  0  0  0  0  0
   -2.6829    1.9188    0.0000 F   0  0  0  0  0  0  0  0  0  0  0  0
   -5.1498   -1.1900    0.0000 C   0  0  0  0  0  0  0  0  0  0  0  0
  1  2  1  0
  2  3  2  0
  2  4  1  0
  4  5  2  0
  5  6  1  0
  6  7  1  0
  6  8  2  0
  8  9  1  0
  9 10  1  0
 10 11  2  0
 10 12  1  0
 12 13  2  0
 13 14  1  0
 14 15  1  0
 15 16  1  0
 16 17  2  0
 17 18  1  0
 18 19  1  0
 19 20  2  0
 19 21  1  0
 21 22  2  0
 22 23  1  0
 23 24  1  0
 24 25  1  0
 25 26  1  0
 14 27  2  0
 27 28  1  0
 28 29  2  0
 29 30  1  0
  9 31  2  0
 31  4  1  0
 29 12  1  0
 22 16  1  0
 26 21  1  0
M  END
$$$$

     RDKit          2D

 35 39  0  0  0  0  0  0  0  0999 V2000
   -0.6537   -3.7410    0.0000 O   0  0  0  0  0  0  0  0  0  0  0  0
   -1.0560   -2.2959    0.0000 C   0  0  0  0  0  0  0  0  0  0  0  0
   -0.0057   -1.2250    0.0000 C   0  0  0  0  0  0  0  0  0  0  0  0
    1.4469   -1.5991    0.0000 C   0  0  0  0  0  0  0  0  0  0  0  0
    2.4972   -0.5282    0.0000 C   0  0  0  0  0  0  0  0  0  0  0  0
    3.9498   -0.9023    0.0000 C   0  0  0  0  0  0  0  0  0  0  0  0
    5.0001    0.1687    0.0000 C   0  0  0  0  0  0  0  0  0  0  0  0
    4.5978    1.6137    0.0000 N   0  0  0  0  0  0  0  0  0  0  0  0
    5.6480    2.6846    0.0000 N   0  0  0  0  0  0  0  0  0  0  0  0
    7.1006    2.3105    0.0000 C   0  0  0  0  0  0  0  0  0  0  0  0
    8.1509    3.3815    0.0000 O   0  0  0  0  0  0  0  0  0  0  0  0
    7.5030    0.8655    0.0000 C   0  0  0  0  0  0  0  0  0  0  0  0
    6.4527   -0.2054    0.0000 C   0  0  0  0  0  0  0  0  0  0  0  0
    6.8550   -1.6505    0.0000 C   0  0  0  0  0  0  0  0  0  0  0  0
    8.3076   -2.0246    0.0000 C   0  0  0  0  0  0  0  0  0  0  0  0
    9.3579   -0.9537    0.0000 C   0  0  0  0  0  0  0  0  0  0  0  0
    8.9556    0.4914    0.0000 C   0  0  0  0  0  0  0  0  0  0  0  0
    2.0949    0.9169    0.0000 C   0  0  0  0  0  0  0  0  0  0  0  0
    0.6423    1.2910    0.0000 C   0  0  0  0  0  0  0  0  0  0  0  0
   -0.4080    0.2201    0.0000 C   0  0  0  0  0  0  0  0  0  0  0  0
   -1.8606    0.5942    0.0000 F   0  0  0  0  0  0  0  0  0  0  0  0
   -2.5086   -1.9218    0.0000 N   0  0  0  0  0  0  0  0  0  0  0  0
   -2.9109   -0.4768    0.0000 C   0  0  0  0  0  0  0  0  0  0  0  0
   -4.3635   -0.1027    0.0000 C   0  0  0  0  0  0  0  0  0  0  0  0
   -5.4138   -1.1736    0.0000 N   0  0  0  0  0  0  0  0  0  0  0  0
   -6.8664   -0.7995    0.0000 C   0  0  0  0  0  0  0  0  0  0  0  0
   -7.9167   -1.8704    0.0000 O   0  0  0  0  0  0  0  0  0  0  0  0
   -7.2687    0.6456    0.0000 N   0  0  0  0  0  0  0  0  0  0  0  0
   -6.2184    1.7165    0.0000 C   0  0  0  0  0  0  0  0  0  0  0  0
   -6.6207    3.1615    0.0000 C   0  0  0  0  0  0  0  0  0  0  0  0
   -8.0733    3.5356    0.0000 C   0  0  0  0  0  0  0  0  0  0  0  0
   -9.1236    2.4647    0.0000 C   0  0  0  0  0  0  0  0  0  0  0  0
   -8.7213    1.0197    0.0000 C   0  0  0  0  0  0  0  0  0  0  0  0
   -5.0115   -2.6186    0.0000 C   0  0  0  0  0  0  0  0  0  0  0  0
   -3.5589   -2.9927    0.0000 C   0  0  0  0  0  0  0  0  0  0  0  0
  1  2  2  0
  2  3  1  0
  3  4  2  0
  4  5  1  0
  5  6  1  0
  6  7  1  0
  7  8  2  0
  8  9  1  0
  9 10  1  0
 10 11  2  0
 10 12  1  0
 12 13  2  0
 13 14  1  0
 14 15  1  0
 15 16  1  0
 16 17  1  0
  5 18  2  0
 18 19  1  0
 19 20  2  0
 20 21  1  0
  2 22  1  0
 22 23  1  0
 23 24  1  0
 24 25  1  0
 25 26  1  0
 26 27  2  0
 26 28  1  0
 28 29  1  0
 29 30  1  0
 30 31  1  0
 31 32  1  0
 32 33  1  0
 25 34  1  0
 34 35  1  0
 20  3  1  0
 35 22  1  0
 13  7  1  0
 33 28  1  0
 17 12  1  0
M  END
$$$$

     RDKit          2D

 21 23  0  0  0  0  0  0  0  0999 V2000
   -6.0991    1.7971    0.0000 C   0  0  0  0  0  0  0  0  0  0  0  0
   -5.7185    0.3462    0.0000 C   0  0  0  0  0  0  0  0  0  0  0  0
   -6.7848   -0.7089    0.0000 C   0  0  0  0  0  0  0  0  0  0  0  0
   -4.2717   -0.0497    0.0000 C   0  0  0  0  0  0  0  0  0  0  0  0
   -3.2055    1.0053    0.0000 C   0  0  0  0  0  0  0  0  0  0  0  0
   -1.7586    0.6095    0.0000 C   0  0  0  0  0  0  0  0  0  0  0  0
   -1.3781   -0.8415    0.0000 C   0  0  0  0  0  0  0  0  0  0  0  0
    0.0687   -1.2373    0.0000 C   0  0  0  0  0  0  0  0  0  0  0  0
    1.1350   -0.1823    0.0000 C   0  0  0  0  0  0  0  0  0  0  0  0
    0.7544    1.2686    0.0000 N   0  0  0  0  0  0  0  0  0  0  0  0
    1.8207    2.3237    0.0000 N   0  0  0  0  0  0  0  0  0  0  0  0
    3.2675    1.9278    0.0000 C   0  0  0  0  0  0  0  0  0  0  0  0
    4.3337    2.9829    0.0000 O   0  0  0  0  0  0  0  0  0  0  0  0
    3.6481    0.4769    0.0000 C   0  0  0  0  0  0  0  0  0  0  0  0
    2.5818   -0.5782    0.0000 C   0  0  0  0  0  0  0  0  0  0  0  0
    2.9624   -2.0291    0.0000 N   0  0  0  0  0  0  0  0  0  0  0  0
    4.4092   -2.4249    0.0000 C   0  0  0  0  0  0  0  0  0  0  0  0
    5.4754   -1.3699    0.0000 C   0  0  0  0  0  0  0  0  0  0  0  0
    5.0949    0.0810    0.0000 C   0  0  0  0  0  0  0  0  0  0  0  0
   -2.4443   -1.8965    0.0000 C   0  0  0  0  0  0  0  0  0  0  0  0
   -3.8911   -1.5006    0.0000 C   0  0  0  0  0  0  0  0  0  0  0  0
  1  2  1  0
  2  3  1  0
  2  4  1  0
  4  5  2  0
  5  6  1  0
  6  7  2  0
  7  8  1  0
  8  9  1  0
  9 10  2  0
 10 11  1  0
 11 12  1  0
 12 13  2  0
 12 14  1  0
 14 15  2  0
 15 16  1  0
 16 17  1  0
 17 18  1  0
 18 19  1  0
  7 20  1  0
 20 21  2  0
 21  4  1  0
 15  9  1  0
 19 14  1  0
M  END
$$$$

     RDKit          2D

 28 31  0  0  0  0  0  0  0  0999 V2000
   -3.3899   -1.7275    0.0000 O   0  0  0  0  0  0  0  0  0  0  0  0
   -3.2750   -0.2319    0.0000 C   0  0  0  0  0  0  0  0  0  0  0  0
   -4.5127    0.6155    0.0000 N   0  0  0  0  0  0  0  0  0  0  0  0
   -5.8654   -0.0328    0.0000 C   0  0  0  0  0  0  0  0  0  0  0  0
   -7.1032    0.8146    0.0000 C   0  0  0  0  0  0  0  0  0  0  0  0
   -8.4559    0.1663    0.0000 C   0  0  0  0  0  0  0  0  0  0  0  0
   -8.5708   -1.3293    0.0000 C   0  0  0  0  0  0  0  0  0  0  0  0
   -7.3331   -2.1766    0.0000 C   0  0  0  0  0  0  0  0  0  0  0  0
   -5.9804   -1.5284    0.0000 C   0  0  0  0  0  0  0  0  0  0  0  0
   -1.9223    0.4164    0.0000 C   0  0  0  0  0  0  0  0  0  0  0  0
   -0.6846   -0.4310    0.0000 C   0  0  0  0  0  0  0  0  0  0  0  0
    0.6681    0.2173    0.0000 C   0  0  0  0  0  0  0  0  0  0  0  0
    1.9059   -0.6300    0.0000 C   0  0  0  0  0  0  0  0  0  0  0  0
    3.2586    0.0182    0.0000 C   0  0  0  0  0  0  0  0  0  0  0  0
    3.3735    1.5138    0.0000 N   0  0  0  0  0  0  0  0  0  0  0  0
    4.7262    2.1620    0.0000 N   0  0  0  0  0  0  0  0  0  0  0  0
    5.9640    1.3147    0.0000 C   0  0  0  0  0  0  0  0  0  0  0  0
    7.3166    1.9630    0.0000 O   0  0  0  0  0  0  0  0  0  0  0  0
    5.8490   -0.1809    0.0000 C   0  0  0  0  0  0  0  0  0  0  0  0
    4.4963   -0.8291    0.0000 C   0  0  0  0  0  0  0  0  0  0  0  0
    4.3814   -2.3247    0.0000 C   0  0  0  0  0  0  0  0  0  0  0  0
    5.6191   -3.1721    0.0000 C   0  0  0  0  0  0  0  0  0  0  0  0
    6.9718   -2.5238    0.0000 C   0  0  0  0  0  0  0  0  0  0  0  0
    7.0868   -1.0282    0.0000 C   0  0  0  0  0  0  0  0  0  0  0  0
    0.7831    1.7129    0.0000 C   0  0  0  0  0  0  0  0  0  0  0  0
   -0.4547    2.5602    0.0000 C   0  0  0  0  0  0  0  0  0  0  0  0
   -1.8074    1.9120    0.0000 C   0  0  0  0  0  0  0  0  0  0  0  0
   -3.0451    2.7593    0.0000 F   0  0  0  0  0  0  0  0  0  0  0  0
  1  2  2  0
  2  3  1  0
  3  4  1  0
  4  5  2  0
  5  6  1  0
  6  7  2  0
  7  8  1  0
  8  9  2  0
  2 10  1  0
 10 11  2  0
 11 12  1  0
 12 13  1  0
 13 14  1  0
 14 15  2  0
 15 16  1  0
 16 17  1  0
 17 18  2  0
 17 19  1  0
 19 20  2  0
 20 21  1  0
 21 22  1  0
 22 23  1  0
 23 24  1  0
 12 25  2  0
 25 26  1  0
 26 27  2  0
 27 28  1  0
  9  4  1  0
 27 10  1  0
 20 14  1  0
 24 19  1  0
M  END
$$$$

     RDKit          2D

 30 33  0  0  0  0  0  0  0  0999 V2000
    1.0034    3.4463    0.0000 C   0  0  0  0  0  0  0  0  0  0  0  0
    0.1251    2.2303    0.0000 N   0  0  0  0  0  0  0  0  0  0  0  0
    0.7390    0.8617    0.0000 C   0  0  0  0  0  0  0  0  0  0  0  0
   -1.3671    2.3830    0.0000 C   0  0  0  0  0  0  0  0  0  0  0  0
   -2.2454    1.1670    0.0000 C   0  0  0  0  0  0  0  0  0  0  0  0
   -3.7377    1.3196    0.0000 N   0  0  0  0  0  0  0  0  0  0  0  0
   -4.4913    2.6166    0.0000 C   0  0  0  0  0  0  0  0  0  0  0  0
   -5.9576    2.3006    0.0000 C   0  0  0  0  0  0  0  0  0  0  0  0
   -6.1103    0.8084    0.0000 C   0  0  0  0  0  0  0  0  0  0  0  0
   -4.7382    0.2021    0.0000 N   0  0  0  0  0  0  0  0  0  0  0  0
   -4.4223   -1.2642    0.0000 C   0  0  0  0  0  0  0  0  0  0  0  0
   -5.5342   -2.2710    0.0000 O   0  0  0  0  0  0  0  0  0  0  0  0
   -2.9944   -1.7238    0.0000 C   0  0  0  0  0  0  0  0  0  0  0  0
   -2.6785   -3.1901    0.0000 C   0  0  0  0  0  0  0  0  0  0  0  0
   -1.2506   -3.6497    0.0000 C   0  0  0  0  0  0  0  0  0  0  0  0
   -0.1387   -2.6429    0.0000 C   0  0  0  0  0  0  0  0  0  0  0  0
   -0.4546   -1.1765    0.0000 C   0  0  0  0  0  0  0  0  0  0  0  0
    0.6573   -0.1697    0.0000 C   0  0  0  0  0  0  0  0  0  0  0  0
    2.0852   -0.6293    0.0000 C   0  0  0  0  0  0  0  0  0  0  0  0
    2.4011   -2.0956    0.0000 N   0  0  0  0  0  0  0  0  0  0  0  0
    3.8290   -2.5552    0.0000 N   0  0  0  0  0  0  0  0  0  0  0  0
    4.9409   -1.5484    0.0000 C   0  0  0  0  0  0  0  0  0  0  0  0
    6.3688   -2.0080    0.0000 O   0  0  0  0  0  0  0  0  0  0  0  0
    4.6249   -0.0821    0.0000 C   0  0  0  0  0  0  0  0  0  0  0  0
    3.1971    0.3775    0.0000 C   0  0  0  0  0  0  0  0  0  0  0  0
    2.8811    1.8438    0.0000 C   0  0  0  0  0  0  0  0  0  0  0  0
    3.9930    2.8506    0.0000 C   0  0  0  0  0  0  0  0  0  0  0  0
    5.4209    2.3911    0.0000 C   0  0  0  0  0  0  0  0  0  0  0  0
    5.7369    0.9247    0.0000 C   0  0  0  0  0  0  0  0  0  0  0  0
   -1.8825   -0.7170    0.0000 C   0  0  0  0  0  0  0  0  0  0  0  0
  1  2  1  0
  2  3  1  0
  2  4  1  0
  4  5  1  0
  5  6  1  0
  6  7  1  0
  7  8  1  0
  8  9  1  0
  9 10  1  0
 10 11  1  0
 11 12  2  0
 11 13  1  0
 13 14  2  0
 14 15  1  0
 15 16  2  0
 16 17  1  0
 17 18  1  0
 18 19  1  0
 19 20  2  0
 20 21  1  0
 21 22  1  0
 22 23  2  0
 22 24  1  0
 24 25  2  0
 25 26  1  0
 26 27  1  0
 27 28  1  0
 28 29  1  0
 17 30  2  0
 10  6  1  0
 30 13  1  0
 25 19  1  0
 29 24  1  0
M  END
$$$$

     RDKit          2D

 27 30  0  0  0  0  0  0  0  0999 V2000
   -1.4985    0.5677    0.0000 O   0  0  0  0  0  0  0  0  0  0  0  0
   -2.8541   -0.0746    0.0000 C   0  0  0  0  0  0  0  0  0  0  0  0
   -2.9756   -1.5696    0.0000 N   0  0  0  0  0  0  0  0  0  0  0  0
   -1.7416   -2.4224    0.0000 C   0  0  0  0  0  0  0  0  0  0  0  0
   -1.8631   -3.9175    0.0000 C   0  0  0  0  0  0  0  0  0  0  0  0
   -0.6291   -4.7703    0.0000 C   0  0  0  0  0  0  0  0  0  0  0  0
    0.7264   -4.1280    0.0000 C   0  0  0  0  0  0  0  0  0  0  0  0
    0.8479   -2.6329    0.0000 C   0  0  0  0  0  0  0  0  0  0  0  0
    2.2035   -1.9906    0.0000 C   0  0  0  0  0  0  0  0  0  0  0  0
    2.3250   -0.4956    0.0000 C   0  0  0  0  0  0  0  0  0  0  0  0
    1.0910    0.3572    0.0000 N   0  0  0  0  0  0  0  0  0  0  0  0
    1.2125    1.8523    0.0000 N   0  0  0  0  0  0  0  0  0  0  0  0
    2.5681    2.4946    0.0000 C   0  0  0  0  0  0  0  0  0  0  0  0
    2.6896    3.9896    0.0000 O   0  0  0  0  0  0  0  0  0  0  0  0
    3.8021    1.6418    0.0000 C   0  0  0  0  0  0  0  0  0  0  0  0
    3.6805    0.1467    0.0000 C   0  0  0  0  0  0  0  0  0  0  0  0
    4.9145   -0.7061    0.0000 N   0  0  0  0  0  0  0  0  0  0  0  0
    6.2701   -0.0638    0.0000 C   0  0  0  0  0  0  0  0  0  0  0  0
    6.3916    1.4313    0.0000 C   0  0  0  0  0  0  0  0  0  0  0  0
    5.1576    2.2841    0.0000 C   0  0  0  0  0  0  0  0  0  0  0  0
   -0.3861   -1.7801    0.0000 C   0  0  0  0  0  0  0  0  0  0  0  0
   -4.0881    0.7782    0.0000 C   0  0  0  0  0  0  0  0  0  0  0  0
   -3.9665    2.2733    0.0000 C   0  0  0  0  0  0  0  0  0  0  0  0
   -5.2005    3.1261    0.0000 C   0  0  0  0  0  0  0  0  0  0  0  0
   -6.5561    2.4838    0.0000 C   0  0  0  0  0  0  0  0  0  0  0  0
   -6.6776    0.9887    0.0000 C   0  0  0  0  0  0  0  0  0  0  0  0
   -5.4436    0.1360    0.0000 C   0  0  0  0  0  0  0  0  0  0  0  0
  1  2  2  0
  2  3  1  0
  3  4  1  0
  4  5  2  0
  5  6  1  0
  6  7  2  0
  7  8  1  0
  8  9  1  0
  9 10  1  0
 10 11  2  0
 11 12  1  0
 12 13  1  0
 13 14  2  0
 13 15  1  0
 15 16  2  0
 16 17  1  0
 17 18  1  0
 18 19  1  0
 19 20  1  0
  8 21  2  0
  2 22  1  0
 22 23  2  0
 23 24  1  0
 24 25  2  0
 25 26  1  0
 26 27  2  0
 21  4  1  0
 27 22  1  0
 16 10  1  0
 20 15  1  0
M  END
$$$$

     RDKit          2D

 23 26  0  0  0  0  0  0  0  0999 V2000
   -0.7004    2.6722    0.0000 C   0  0  0  0  0  0  0  0  0  0  0  0
   -2.1998    2.7117    0.0000 N   0  0  0  0  0  0  0  0  0  0  0  0
   -3.4787    3.4956    0.0000 C   0  0  0  0  0  0  0  0  0  0  0  0
   -3.5182    1.9961    0.0000 C   0  0  0  0  0  0  0  0  0  0  0  0
   -4.3021    0.7173    0.0000 N   0  0  0  0  0  0  0  0  0  0  0  0
   -3.5865   -0.6010    0.0000 C   0  0  0  0  0  0  0  0  0  0  0  0
   -4.3705   -1.8799    0.0000 C   0  0  0  0  0  0  0  0  0  0  0  0
   -3.6549   -3.1982    0.0000 C   0  0  0  0  0  0  0  0  0  0  0  0
   -2.1554   -3.2377    0.0000 C   0  0  0  0  0  0  0  0  0  0  0  0
   -1.3715   -1.9589    0.0000 C   0  0  0  0  0  0  0  0  0  0  0  0
    0.1280   -1.9983    0.0000 C   0  0  0  0  0  0  0  0  0  0  0  0
    0.9119   -0.7195    0.0000 C   0  0  0  0  0  0  0  0  0  0  0  0
    0.1963    0.5988    0.0000 N   0  0  0  0  0  0  0  0  0  0  0  0
    0.9803    1.8777    0.0000 N   0  0  0  0  0  0  0  0  0  0  0  0
    2.4798    1.8382    0.0000 C   0  0  0  0  0  0  0  0  0  0  0  0
    3.2637    3.1171    0.0000 O   0  0  0  0  0  0  0  0  0  0  0  0
    3.1953    0.5199    0.0000 C   0  0  0  0  0  0  0  0  0  0  0  0
    2.4114   -0.7590    0.0000 C   0  0  0  0  0  0  0  0  0  0  0  0
    3.1269   -2.0773    0.0000 C   0  0  0  0  0  0  0  0  0  0  0  0
    4.6264   -2.1168    0.0000 C   0  0  0  0  0  0  0  0  0  0  0  0
    5.4103   -0.8379    0.0000 C   0  0  0  0  0  0  0  0  0  0  0  0
    4.6948    0.4804    0.0000 C   0  0  0  0  0  0  0  0  0  0  0  0
   -2.0871   -0.6405    0.0000 C   0  0  0  0  0  0  0  0  0  0  0  0
  1  2  1  0
  2  3  1  0
  3  4  1  0
  4  5  1  0
  5  6  1  0
  6  7  2  0
  7  8  1  0
  8  9  2  0
  9 10  1  0
 10 11  1  0
 11 12  1  0
 12 13  2  0
 13 14  1  0
 14 15  1  0
 15 16  2  0
 15 17  1  0
 17 18  2  0
 18 19  1  0
 19 20  1  0
 20 21  1  0
 21 22  1  0
 10 23  2  0
  4  2  1  0
 23  6  1  0
 18 12  1  0
 22 17  1  0
M  END
$$$$

     RDKit          2D

 26 28  0  0  0  0  0  0  0  0999 V2000
   -4.4210    4.8430    0.0000 C   0  0  0  0  0  0  0  0  0  0  0  0
   -3.4702    3.6828    0.0000 N   0  0  0  0  0  0  0  0  0  0  0  0
   -1.9901    3.9261    0.0000 C   0  0  0  0  0  0  0  0  0  0  0  0
   -3.9996    2.2793    0.0000 C   0  0  0  0  0  0  0  0  0  0  0  0
   -3.0488    1.1191    0.0000 N   0  0  0  0  0  0  0  0  0  0  0  0
   -3.5782   -0.2843    0.0000 C   0  0  0  0  0  0  0  0  0  0  0  0
   -5.0583   -0.5276    0.0000 O   0  0  0  0  0  0  0  0  0  0  0  0
   -2.6274   -1.4445    0.0000 C   0  0  0  0  0  0  0  0  0  0  0  0
   -1.1473   -1.2012    0.0000 C   0  0  0  0  0  0  0  0  0  0  0  0
   -0.1965   -2.3614    0.0000 C   0  0  0  0  0  0  0  0  0  0  0  0
    1.2836   -2.1181    0.0000 C   0  0  0  0  0  0  0  0  0  0  0  0
    1.8130   -0.7147    0.0000 C   0  0  0  0  0  0  0  0  0  0  0  0
    0.8622    0.4455    0.0000 N   0  0  0  0  0  0  0  0  0  0  0  0
    1.3916    1.8490    0.0000 N   0  0  0  0  0  0  0  0  0  0  0  0
    2.8717    2.0923    0.0000 C   0  0  0  0  0  0  0  0  0  0  0  0
    3.4011    3.4958    0.0000 O   0  0  0  0  0  0  0  0  0  0  0  0
    3.8225    0.9321    0.0000 C   0  0  0  0  0  0  0  0  0  0  0  0
    3.2931   -0.4714    0.0000 C   0  0  0  0  0  0  0  0  0  0  0  0
    4.2439   -1.6316    0.0000 C   0  0  0  0  0  0  0  0  0  0  0  0
    5.7240   -1.3883    0.0000 C   0  0  0  0  0  0  0  0  0  0  0  0
    6.2534    0.0152    0.0000 C   0  0  0  0  0  0  0  0  0  0  0  0
    5.3026    1.1754    0.0000 C   0  0  0  0  0  0  0  0  0  0  0  0
   -0.7259   -3.7649    0.0000 C   0  0  0  0  0  0  0  0  0  0  0  0
   -2.2060   -4.0082    0.0000 C   0  0  0  0  0  0  0  0  0  0  0  0
   -3.1568   -2.8480    0.0000 C   0  0  0  0  0  0  0  0  0  0  0  0
   -4.6369   -3.0913    0.0000 F   0  0  0  0  0  0  0  0  0  0  0  0
  1  2  1  0
  2  3  1  0
  2  4  1  0
  4  5  1  0
  5  6  1  0
  6  7  2  0
  6  8  1  0
  8  9  2  0
  9 10  1  0
 10 11  1  0
 11 12  1  0
 12 13  2  0
 13 14  1  0
 14 15  1  0
 15 16  2  0
 15 17  1  0
 17 18  2  0
 18 19  1  0
 19 20  1  0
 20 21  1  0
 21 22  1  0
 10 23  2  0
 23 24  1  0
 24 25  2  0
 25 26  1  0
 25  8  1  0
 18 12  1  0
 22 17  1  0
M  END
$$$$

     RDKit          2D

 28 31  0  0  0  0  0  0  0  0999 V2000
   -3.9860   -2.0433    0.0000 O   0  0  0  0  0  0  0  0  0  0  0  0
   -2.6175   -1.4291    0.0000 C   0  0  0  0  0  0  0  0  0  0  0  0
   -2.4652    0.0631    0.0000 N   0  0  0  0  0  0  0  0  0  0  0  0
   -3.6814    0.9412    0.0000 C   0  0  0  0  0  0  0  0  0  0  0  0
   -3.5291    2.4334    0.0000 C   0  0  0  0  0  0  0  0  0  0  0  0
   -4.7453    3.3114    0.0000 C   0  0  0  0  0  0  0  0  0  0  0  0
   -6.1137    2.6972    0.0000 C   0  0  0  0  0  0  0  0  0  0  0  0
   -6.2660    1.2050    0.0000 C   0  0  0  0  0  0  0  0  0  0  0  0
   -7.6345    0.5907    0.0000 I   0  0  0  0  0  0  0  0  0  0  0  0
   -5.0499    0.3269    0.0000 C   0  0  0  0  0  0  0  0  0  0  0  0
   -1.4014   -2.3071    0.0000 C   0  0  0  0  0  0  0  0  0  0  0  0
   -1.5537   -3.7994    0.0000 C   0  0  0  0  0  0  0  0  0  0  0  0
   -0.3375   -4.6774    0.0000 C   0  0  0  0  0  0  0  0  0  0  0  0
    1.0310   -4.0632    0.0000 C   0  0  0  0  0  0  0  0  0  0  0  0
    1.1833   -2.5709    0.0000 C   0  0  0  0  0  0  0  0  0  0  0  0
    2.5518   -1.9567    0.0000 C   0  0  0  0  0  0  0  0  0  0  0  0
    2.7041   -0.4645    0.0000 C   0  0  0  0  0  0  0  0  0  0  0  0
    1.4879    0.4136    0.0000 N   0  0  0  0  0  0  0  0  0  0  0  0
    1.6402    1.9058    0.0000 N   0  0  0  0  0  0  0  0  0  0  0  0
    3.0087    2.5200    0.0000 C   0  0  0  0  0  0  0  0  0  0  0  0
    3.1610    4.0123    0.0000 O   0  0  0  0  0  0  0  0  0  0  0  0
    4.2249    1.6420    0.0000 C   0  0  0  0  0  0  0  0  0  0  0  0
    4.0726    0.1498    0.0000 C   0  0  0  0  0  0  0  0  0  0  0  0
    5.2887   -0.7283    0.0000 C   0  0  0  0  0  0  0  0  0  0  0  0
    6.6572   -0.1140    0.0000 C   0  0  0  0  0  0  0  0  0  0  0  0
    6.8095    1.3782    0.0000 C   0  0  0  0  0  0  0  0  0  0  0  0
    5.5933    2.2562    0.0000 C   0  0  0  0  0  0  0  0  0  0  0  0
   -0.0329   -1.6929    0.0000 C   0  0  0  0  0  0  0  0  0  0  0  0
  1  2  2  0
  2  3  1  0
  3  4  1  0
  4  5  2  0
  5  6  1  0
  6  7  2  0
  7  8  1  0
  8  9  1  0
  8 10  2  0
  2 11  1  0
 11 12  2  0
 12 13  1  0
 13 14  2  0
 14 15  1  0
 15 16  1  0
 16 17  1  0
 17 18  2  0
 18 19  1  0
 19 20  1  0
 20 21  2  0
 20 22  1  0
 22 23  2  0
 23 24  1  0
 24 25  1  0
 25 26  1  0
 26 27  1  0
 15 28  2  0
 10  4  1  0
 28 11  1  0
 23 17  1  0
 27 22  1  0
M  END
$$$$

     RDKit          2D

 30 33  0  0  0  0  0  0  0  0999 V2000
   -9.5265   -0.9348    0.0000 C   0  0  0  0  0  0  0  0  0  0  0  0
   -8.1269   -0.3952    0.0000 N   0  0  0  0  0  0  0  0  0  0  0  0
   -7.8944    1.0867    0.0000 Cl  0  0  0  0  0  0  0  0  0  0  0  0
   -6.9598   -1.3375    0.0000 C   0  0  0  0  0  0  0  0  0  0  0  0
   -7.1923   -2.8193    0.0000 O   0  0  0  0  0  0  0  0  0  0  0  0
   -5.5602   -0.7979    0.0000 C   0  0  0  0  0  0  0  0  0  0  0  0
   -5.3277    0.6840    0.0000 C   0  0  0  0  0  0  0  0  0  0  0  0
   -3.9281    1.2236    0.0000 C   0  0  0  0  0  0  0  0  0  0  0  0
   -2.7610    0.2813    0.0000 C   0  0  0  0  0  0  0  0  0  0  0  0
   -1.3615    0.8209    0.0000 C   0  0  0  0  0  0  0  0  0  0  0  0
   -0.1944   -0.1213    0.0000 C   0  0  0  0  0  0  0  0  0  0  0  0
    1.2052    0.4183    0.0000 C   0  0  0  0  0  0  0  0  0  0  0  0
    2.3723   -0.5240    0.0000 C   0  0  0  0  0  0  0  0  0  0  0  0
    3.7719    0.0156    0.0000 C   0  0  0  0  0  0  0  0  0  0  0  0
    4.0044    1.4975    0.0000 N   0  0  0  0  0  0  0  0  0  0  0  0
    5.4040    2.0371    0.0000 N   0  0  0  0  0  0  0  0  0  0  0  0
    6.5711    1.0948    0.0000 C   0  0  0  0  0  0  0  0  0  0  0  0
    7.9707    1.6344    0.0000 O   0  0  0  0  0  0  0  0  0  0  0  0
    6.3386   -0.3871    0.0000 C   0  0  0  0  0  0  0  0  0  0  0  0
    4.9390   -0.9267    0.0000 C   0  0  0  0  0  0  0  0  0  0  0  0
    4.7065   -2.4086    0.0000 N   0  0  0  0  0  0  0  0  0  0  0  0
    5.8736   -3.3508    0.0000 C   0  0  0  0  0  0  0  0  0  0  0  0
    7.2732   -2.8112    0.0000 C   0  0  0  0  0  0  0  0  0  0  0  0
    7.5057   -1.3294    0.0000 C   0  0  0  0  0  0  0  0  0  0  0  0
    1.4377    1.9001    0.0000 C   0  0  0  0  0  0  0  0  0  0  0  0
    0.2706    2.8424    0.0000 C   0  0  0  0  0  0  0  0  0  0  0  0
   -1.1290    2.3028    0.0000 C   0  0  0  0  0  0  0  0  0  0  0  0
   -2.2961    3.2451    0.0000 F   0  0  0  0  0  0  0  0  0  0  0  0
   -2.9935   -1.2005    0.0000 C   0  0  0  0  0  0  0  0  0  0  0  0
   -4.3931   -1.7401    0.0000 C   0  0  0  0  0  0  0  0  0  0  0  0
  1  2  1  0
  2  3  1  0
  2  4  1  0
  4  5  2  0
  4  6  1  0
  6  7  2  0
  7  8  1  0
  8  9  2  0
  9 10  1  0
 10 11  2  0
 11 12  1  0
 12 13  1  0
 13 14  1  0
 14 15  2  0
 15 16  1  0
 16 17  1  0
 17 18  2  0
 17 19  1  0
 19 20  2  0
 20 21  1  0
 21 22  1  0
 22 23  1  0
 23 24  1  0
 12 25  2  0
 25 26  1  0
 26 27  2  0
 27 28  1  0
  9 29  1  0
 29 30  2  0
 30  6  1  0
 27 10  1  0
 20 14  1  0
 24 19  1  0
M  END
$$$$

     RDKit          2D

 28 31  0  0  0  0  0  0  0  0999 V2000
  -10.1648    1.0323    0.0000 C   0  0  0  0  0  0  0  0  0  0  0  0
   -8.8229    0.3620    0.0000 C   0  0  0  0  0  0  0  0  0  0  0  0
   -7.4000    0.8369    0.0000 C   0  0  0  0  0  0  0  0  0  0  0  0
   -6.9251   -0.5859    0.0000 C   0  0  0  0  0  0  0  0  0  0  0  0
   -5.5832   -1.2562    0.0000 C   0  0  0  0  0  0  0  0  0  0  0  0
   -4.3318   -0.4292    0.0000 N   0  0  0  0  0  0  0  0  0  0  0  0
   -2.9899   -1.0995    0.0000 C   0  0  0  0  0  0  0  0  0  0  0  0
   -2.8994   -2.5968    0.0000 O   0  0  0  0  0  0  0  0  0  0  0  0
   -1.7385   -0.2726    0.0000 C   0  0  0  0  0  0  0  0  0  0  0  0
   -0.3965   -0.9428    0.0000 C   0  0  0  0  0  0  0  0  0  0  0  0
    0.8549   -0.1159    0.0000 C   0  0  0  0  0  0  0  0  0  0  0  0
    2.1968   -0.7862    0.0000 C   0  0  0  0  0  0  0  0  0  0  0  0
    3.4482    0.0408    0.0000 C   0  0  0  0  0  0  0  0  0  0  0  0
    3.3578    1.5381    0.0000 N   0  0  0  0  0  0  0  0  0  0  0  0
    4.6092    2.3651    0.0000 N   0  0  0  0  0  0  0  0  0  0  0  0
    5.9511    1.6948    0.0000 C   0  0  0  0  0  0  0  0  0  0  0  0
    7.2026    2.5217    0.0000 O   0  0  0  0  0  0  0  0  0  0  0  0
    6.0416    0.1975    0.0000 C   0  0  0  0  0  0  0  0  0  0  0  0
    4.7901   -0.6295    0.0000 C   0  0  0  0  0  0  0  0  0  0  0  0
    4.8806   -2.1267    0.0000 N   0  0  0  0  0  0  0  0  0  0  0  0
    6.2225   -2.7970    0.0000 C   0  0  0  0  0  0  0  0  0  0  0  0
    7.4740   -1.9701    0.0000 C   0  0  0  0  0  0  0  0  0  0  0  0
    7.3835   -0.4728    0.0000 C   0  0  0  0  0  0  0  0  0  0  0  0
    0.7644    1.3814    0.0000 C   0  0  0  0  0  0  0  0  0  0  0  0
   -0.5775    2.0517    0.0000 C   0  0  0  0  0  0  0  0  0  0  0  0
   -1.8289    1.2247    0.0000 C   0  0  0  0  0  0  0  0  0  0  0  0
   -3.1708    1.8950    0.0000 F   0  0  0  0  0  0  0  0  0  0  0  0
   -8.3480   -1.0608    0.0000 C   0  0  0  0  0  0  0  0  0  0  0  0
  1  2  1  0
  2  3  1  0
  3  4  1  0
  4  5  1  0
  5  6  1  0
  6  7  1  0
  7  8  2  0
  7  9  1  0
  9 10  2  0
 10 11  1  0
 11 12  1  0
 12 13  1  0
 13 14  2  0
 14 15  1  0
 15 16  1  0
 16 17  2  0
 16 18  1  0
 18 19  2  0
 19 20  1  0
 20 21  1  0
 21 22  1  0
 22 23  1  0
 11 24  2  0
 24 25  1  0
 25 26  2  0
 26 27  1  0
  4 28  1  0
 28  2  1  0
 26  9  1  0
 19 13  1  0
 23 18  1  0
M  END
$$$$

     RDKit          2D

 25 28  0  0  0  0  0  0  0  0999 V2000
   -6.0166    1.3798    0.0000 O   0  0  0  0  0  0  0  0  0  0  0  0
   -5.7067   -0.0878    0.0000 C   0  0  0  0  0  0  0  0  0  0  0  0
   -6.7119   -1.2012    0.0000 C   0  0  0  0  0  0  0  0  0  0  0  0
   -5.9636   -2.5012    0.0000 C   0  0  0  0  0  0  0  0  0  0  0  0
   -4.4960   -2.1913    0.0000 C   0  0  0  0  0  0  0  0  0  0  0  0
   -4.3372   -0.6997    0.0000 N   0  0  0  0  0  0  0  0  0  0  0  0
   -3.0372    0.0485    0.0000 C   0  0  0  0  0  0  0  0  0  0  0  0
   -1.7391   -0.7032    0.0000 C   0  0  0  0  0  0  0  0  0  0  0  0
   -0.4391    0.0451    0.0000 C   0  0  0  0  0  0  0  0  0  0  0  0
    0.8589   -0.7066    0.0000 C   0  0  0  0  0  0  0  0  0  0  0  0
    2.1590    0.0416    0.0000 C   0  0  0  0  0  0  0  0  0  0  0  0
    2.1610    1.5416    0.0000 N   0  0  0  0  0  0  0  0  0  0  0  0
    3.4610    2.2899    0.0000 N   0  0  0  0  0  0  0  0  0  0  0  0
    4.7590    1.5382    0.0000 C   0  0  0  0  0  0  0  0  0  0  0  0
    6.0591    2.2865    0.0000 O   0  0  0  0  0  0  0  0  0  0  0  0
    4.7570    0.0382    0.0000 C   0  0  0  0  0  0  0  0  0  0  0  0
    3.4570   -0.7101    0.0000 C   0  0  0  0  0  0  0  0  0  0  0  0
    3.4550   -2.2101    0.0000 C   0  0  0  0  0  0  0  0  0  0  0  0
    4.7531   -2.9618    0.0000 C   0  0  0  0  0  0  0  0  0  0  0  0
    6.0531   -2.2135    0.0000 C   0  0  0  0  0  0  0  0  0  0  0  0
    6.0551   -0.7135    0.0000 C   0  0  0  0  0  0  0  0  0  0  0  0
   -0.4371    1.5451    0.0000 C   0  0  0  0  0  0  0  0  0  0  0  0
   -1.7352    2.2968    0.0000 C   0  0  0  0  0  0  0  0  0  0  0  0
   -3.0352    1.5485    0.0000 C   0  0  0  0  0  0  0  0  0  0  0  0
   -4.3332    2.3003    0.0000 F   0  0  0  0  0  0  0  0  0  0  0  0
  1  2  2  0
  2  3  1  0
  3  4  1  0
  4  5  1  0
  5  6  1  0
  6  7  1  0
  7  8  2  0
  8  9  1  0
  9 10  1  0
 10 11  1  0
 11 12  2  0
 12 13  1  0
 13 14  1  0
 14 15  2  0
 14 16  1  0
 16 17  2  0
 17 18  1  0
 18 19  1  0
 19 20  1  0
 20 21  1  0
  9 22  2  0
 22 23  1  0
 23 24  2  0
 24 25  1  0
  6  2  1  0
 24  7  1  0
 17 11  1  0
 21 16  1  0
M  END
$$$$

     RDKit          2D

 29 32  0  0  0  0  0  0  0  0999 V2000
    2.6275    1.1513    0.0000 O   0  0  0  0  0  0  0  0  0  0  0  0
    3.1796   -0.2434    0.0000 C   0  0  0  0  0  0  0  0  0  0  0  0
    4.6635   -0.4627    0.0000 N   0  0  0  0  0  0  0  0  0  0  0  0
    5.5953    0.7128    0.0000 C   0  0  0  0  0  0  0  0  0  0  0  0
    7.0792    0.4935    0.0000 C   0  0  0  0  0  0  0  0  0  0  0  0
    8.0110    1.6690    0.0000 C   0  0  0  0  0  0  0  0  0  0  0  0
    7.4590    3.0637    0.0000 C   0  0  0  0  0  0  0  0  0  0  0  0
    5.9751    3.2829    0.0000 C   0  0  0  0  0  0  0  0  0  0  0  0
    5.0433    2.1075    0.0000 C   0  0  0  0  0  0  0  0  0  0  0  0
    2.2478   -1.4189    0.0000 C   0  0  0  0  0  0  0  0  0  0  0  0
    0.7639   -1.1996    0.0000 C   0  0  0  0  0  0  0  0  0  0  0  0
   -0.1679   -2.3751    0.0000 C   0  0  0  0  0  0  0  0  0  0  0  0
   -1.6518   -2.1558    0.0000 C   0  0  0  0  0  0  0  0  0  0  0  0
   -2.2039   -0.7611    0.0000 C   0  0  0  0  0  0  0  0  0  0  0  0
   -3.6878   -0.5418    0.0000 C   0  0  0  0  0  0  0  0  0  0  0  0
   -4.6196   -1.7173    0.0000 N   0  0  0  0  0  0  0  0  0  0  0  0
   -6.1035   -1.4980    0.0000 N   0  0  0  0  0  0  0  0  0  0  0  0
   -6.6556   -0.1033    0.0000 C   0  0  0  0  0  0  0  0  0  0  0  0
   -8.1394    0.1160    0.0000 O   0  0  0  0  0  0  0  0  0  0  0  0
   -5.7237    1.0722    0.0000 C   0  0  0  0  0  0  0  0  0  0  0  0
   -4.2398    0.8529    0.0000 C   0  0  0  0  0  0  0  0  0  0  0  0
   -3.3080    2.0283    0.0000 C   0  0  0  0  0  0  0  0  0  0  0  0
   -3.8601    3.4231    0.0000 C   0  0  0  0  0  0  0  0  0  0  0  0
   -5.3439    3.6423    0.0000 C   0  0  0  0  0  0  0  0  0  0  0  0
   -6.2758    2.4669    0.0000 C   0  0  0  0  0  0  0  0  0  0  0  0
    0.3841   -3.7698    0.0000 C   0  0  0  0  0  0  0  0  0  0  0  0
    1.8680   -3.9890    0.0000 C   0  0  0  0  0  0  0  0  0  0  0  0
    2.7998   -2.8136    0.0000 C   0  0  0  0  0  0  0  0  0  0  0  0
    4.2837   -3.0329    0.0000 F   0  0  0  0  0  0  0  0  0  0  0  0
  1  2  2  0
  2  3  1  0
  3  4  1  0
  4  5  2  0
  5  6  1  0
  6  7  2  0
  7  8  1  0
  8  9  2  0
  2 10  1  0
 10 11  2  0
 11 12  1  0
 12 13  1  0
 13 14  1  0
 14 15  1  0
 15 16  2  0
 16 17  1  0
 17 18  1  0
 18 19  2  0
 18 20  1  0
 20 21  2  0
 21 22  1  0
 22 23  1  0
 23 24  1  0
 24 25  1  0
 12 26  2  0
 26 27  1  0
 27 28  2  0
 28 29  1  0
  9  4  1  0
 28 10  1  0
 21 15  1  0
 25 20  1  0
M  END
$$$$

     RDKit          2D

 22 24  0  0  0  0  0  0  0  0999 V2000
   -3.7360    3.9865    0.0000 O   0  0  0  0  0  0  0  0  0  0  0  0
   -3.1362    2.6116    0.0000 C   0  0  0  0  0  0  0  0  0  0  0  0
   -4.0271    1.4048    0.0000 N   0  0  0  0  0  0  0  0  0  0  0  0
   -3.4273    0.0299    0.0000 C   0  0  0  0  0  0  0  0  0  0  0  0
   -1.9368   -0.1382    0.0000 C   0  0  0  0  0  0  0  0  0  0  0  0
   -1.3370   -1.5130    0.0000 C   0  0  0  0  0  0  0  0  0  0  0  0
    0.1535   -1.6811    0.0000 C   0  0  0  0  0  0  0  0  0  0  0  0
    1.0443   -0.4743    0.0000 C   0  0  0  0  0  0  0  0  0  0  0  0
    0.4446    0.9006    0.0000 N   0  0  0  0  0  0  0  0  0  0  0  0
    1.3354    2.1074    0.0000 N   0  0  0  0  0  0  0  0  0  0  0  0
    2.8260    1.9394    0.0000 C   0  0  0  0  0  0  0  0  0  0  0  0
    3.7168    3.1462    0.0000 O   0  0  0  0  0  0  0  0  0  0  0  0
    3.4257    0.5645    0.0000 C   0  0  0  0  0  0  0  0  0  0  0  0
    2.5349   -0.6423    0.0000 C   0  0  0  0  0  0  0  0  0  0  0  0
    3.1346   -2.0172    0.0000 N   0  0  0  0  0  0  0  0  0  0  0  0
    4.6252   -2.1853    0.0000 C   0  0  0  0  0  0  0  0  0  0  0  0
    5.5160   -0.9785    0.0000 C   0  0  0  0  0  0  0  0  0  0  0  0
    4.9163    0.3964    0.0000 C   0  0  0  0  0  0  0  0  0  0  0  0
   -2.2279   -2.7199    0.0000 C   0  0  0  0  0  0  0  0  0  0  0  0
   -3.7184   -2.5518    0.0000 C   0  0  0  0  0  0  0  0  0  0  0  0
   -4.3181   -1.1769    0.0000 C   0  0  0  0  0  0  0  0  0  0  0  0
   -5.8087   -1.0089    0.0000 F   0  0  0  0  0  0  0  0  0  0  0  0
  1  2  2  0
  2  3  1  0
  3  4  1  0
  4  5  2  0
  5  6  1  0
  6  7  1  0
  7  8  1  0
  8  9  2  0
  9 10  1  0
 10 11  1  0
 11 12  2  0
 11 13  1  0
 13 14  2  0
 14 15  1  0
 15 16  1  0
 16 17  1  0
 17 18  1  0
  6 19  2  0
 19 20  1  0
 20 21  2  0
 21 22  1  0
 21  4  1  0
 14  8  1  0
 18 13  1  0
M  END
$$$$

     RDKit          2D

 31 34  0  0  0  0  0  0  0  0999 V2000
   -1.6983   -4.1070    0.0000 O   0  0  0  0  0  0  0  0  0  0  0  0
   -0.7110   -2.9777    0.0000 C   0  0  0  0  0  0  0  0  0  0  0  0
   -1.1953   -1.5580    0.0000 N   0  0  0  0  0  0  0  0  0  0  0  0
   -2.6669   -1.2676    0.0000 C   0  0  0  0  0  0  0  0  0  0  0  0
   -3.1512    0.1521    0.0000 C   0  0  0  0  0  0  0  0  0  0  0  0
   -4.6228    0.4425    0.0000 C   0  0  0  0  0  0  0  0  0  0  0  0
   -5.1071    1.8622    0.0000 C   0  0  0  0  0  0  0  0  0  0  0  0
   -6.5787    2.1526    0.0000 C   0  0  0  0  0  0  0  0  0  0  0  0
   -7.5660    1.0234    0.0000 C   0  0  0  0  0  0  0  0  0  0  0  0
   -9.0376    1.3138    0.0000 C   0  0  0  0  0  0  0  0  0  0  0  0
   -9.5219    2.7335    0.0000 O   0  0  0  0  0  0  0  0  0  0  0  0
   -7.0817   -0.3963    0.0000 C   0  0  0  0  0  0  0  0  0  0  0  0
   -5.6101   -0.6867    0.0000 C   0  0  0  0  0  0  0  0  0  0  0  0
    0.7606   -3.2681    0.0000 C   0  0  0  0  0  0  0  0  0  0  0  0
    1.2449   -4.6878    0.0000 C   0  0  0  0  0  0  0  0  0  0  0  0
    2.7165   -4.9783    0.0000 C   0  0  0  0  0  0  0  0  0  0  0  0
    3.7039   -3.8490    0.0000 C   0  0  0  0  0  0  0  0  0  0  0  0
    3.2196   -2.4293    0.0000 C   0  0  0  0  0  0  0  0  0  0  0  0
    4.2069   -1.3001    0.0000 C   0  0  0  0  0  0  0  0  0  0  0  0
    3.7226    0.1196    0.0000 C   0  0  0  0  0  0  0  0  0  0  0  0
    2.2510    0.4100    0.0000 N   0  0  0  0  0  0  0  0  0  0  0  0
    1.7667    1.8297    0.0000 N   0  0  0  0  0  0  0  0  0  0  0  0
    2.7541    2.9589    0.0000 C   0  0  0  0  0  0  0  0  0  0  0  0
    2.2698    4.3786    0.0000 O   0  0  0  0  0  0  0  0  0  0  0  0
    4.2257    2.6685    0.0000 C   0  0  0  0  0  0  0  0  0  0  0  0
    4.7100    1.2488    0.0000 C   0  0  0  0  0  0  0  0  0  0  0  0
    6.1816    0.9584    0.0000 C   0  0  0  0  0  0  0  0  0  0  0  0
    7.1689    2.0876    0.0000 C   0  0  0  0  0  0  0  0  0  0  0  0
    6.6846    3.5073    0.0000 C   0  0  0  0  0  0  0  0  0  0  0  0
    5.2130    3.7977    0.0000 C   0  0  0  0  0  0  0  0  0  0  0  0
    1.7480   -2.1389    0.0000 C   0  0  0  0  0  0  0  0  0  0  0  0
  1  2  2  0
  2  3  1  0
  3  4  1  0
  4  5  1  0
  5  6  1  0
  6  7  2  0
  7  8  1  0
  8  9  2  0
  9 10  1  0
 10 11  1  0
  9 12  1  0
 12 13  2  0
  2 14  1  0
 14 15  2  0
 15 16  1  0
 16 17  2  0
 17 18  1  0
 18 19  1  0
 19 20  1  0
 20 21  2  0
 21 22  1  0
 22 23  1  0
 23 24  2  0
 23 25  1  0
 25 26  2  0
 26 27  1  0
 27 28  1  0
 28 29  1  0
 29 30  1  0
 18 31  2  0
 13  6  1  0
 31 14  1  0
 26 20  1  0
 30 25  1  0
M  END
$$$$

     RDKit          2D

 23 26  0  0  0  0  0  0  0  0999 V2000
   -6.1328   -2.5832    0.0000 N   0  0  0  0  0  0  0  0  0  0  0  0
   -4.7538   -1.9928    0.0000 C   0  0  0  0  0  0  0  0  0  0  0  0
   -3.5531   -2.8918    0.0000 O   0  0  0  0  0  0  0  0  0  0  0  0
   -4.5756   -0.5034    0.0000 C   0  0  0  0  0  0  0  0  0  0  0  0
   -5.7764    0.3956    0.0000 C   0  0  0  0  0  0  0  0  0  0  0  0
   -5.5982    1.8850    0.0000 C   0  0  0  0  0  0  0  0  0  0  0  0
   -4.2192    2.4753    0.0000 C   0  0  0  0  0  0  0  0  0  0  0  0
   -3.0185    1.5763    0.0000 C   0  0  0  0  0  0  0  0  0  0  0  0
   -1.5469    1.8671    0.0000 N   0  0  0  0  0  0  0  0  0  0  0  0
   -0.8157    0.5574    0.0000 C   0  0  0  0  0  0  0  0  0  0  0  0
    0.6737    0.3792    0.0000 C   0  0  0  0  0  0  0  0  0  0  0  0
    1.2641   -0.9998    0.0000 C   0  0  0  0  0  0  0  0  0  0  0  0
    2.7534   -1.1780    0.0000 C   0  0  0  0  0  0  0  0  0  0  0  0
    3.6524    0.0228    0.0000 C   0  0  0  0  0  0  0  0  0  0  0  0
    5.1418   -0.1554    0.0000 C   0  0  0  0  0  0  0  0  0  0  0  0
    6.1614    0.9447    0.0000 C   0  0  0  0  0  0  0  0  0  0  0  0
    7.5228    0.3150    0.0000 C   0  0  0  0  0  0  0  0  0  0  0  0
    7.3446   -1.1744    0.0000 C   0  0  0  0  0  0  0  0  0  0  0  0
    5.8731   -1.4651    0.0000 O   0  0  0  0  0  0  0  0  0  0  0  0
    3.0621    1.4017    0.0000 C   0  0  0  0  0  0  0  0  0  0  0  0
    1.5727    1.5799    0.0000 C   0  0  0  0  0  0  0  0  0  0  0  0
   -1.8353   -0.5428    0.0000 N   0  0  0  0  0  0  0  0  0  0  0  0
   -3.1967    0.0869    0.0000 C   0  0  0  0  0  0  0  0  0  0  0  0
  1  2  1  0
  2  3  2  0
  2  4  1  0
  4  5  2  0
  5  6  1  0
  6  7  2  0
  7  8  1  0
  8  9  1  0
  9 10  1  0
 10 11  1  0
 11 12  2  0
 12 13  1  0
 13 14  2  0
 14 15  1  0
 15 16  2  0
 16 17  1  0
 17 18  2  0
 18 19  1  0
 14 20  1  0
 20 21  2  0
 10 22  2  0
 22 23  1  0
 23  4  1  0
 23  8  2  0
 21 11  1  0
 19 15  1  0
M  END
$$$$

     RDKit          2D

 34 38  0  0  0  0  0  0  0  0999 V2000
   -1.1184   -3.8026    0.0000 O   0  0  0  0  0  0  0  0  0  0  0  0
   -1.5206   -2.3575    0.0000 C   0  0  0  0  0  0  0  0  0  0  0  0
   -0.4703   -1.2867    0.0000 C   0  0  0  0  0  0  0  0  0  0  0  0
    0.9823   -1.6609    0.0000 C   0  0  0  0  0  0  0  0  0  0  0  0
    2.0326   -0.5900    0.0000 C   0  0  0  0  0  0  0  0  0  0  0  0
    3.4852   -0.9642    0.0000 C   0  0  0  0  0  0  0  0  0  0  0  0
    4.5356    0.1066    0.0000 C   0  0  0  0  0  0  0  0  0  0  0  0
    4.1334    1.5517    0.0000 N   0  0  0  0  0  0  0  0  0  0  0  0
    5.1837    2.6226    0.0000 N   0  0  0  0  0  0  0  0  0  0  0  0
    6.6363    2.2484    0.0000 C   0  0  0  0  0  0  0  0  0  0  0  0
    7.6866    3.3192    0.0000 O   0  0  0  0  0  0  0  0  0  0  0  0
    7.0385    0.8033    0.0000 C   0  0  0  0  0  0  0  0  0  0  0  0
    5.9881   -0.2676    0.0000 C   0  0  0  0  0  0  0  0  0  0  0  0
    6.3904   -1.7126    0.0000 N   0  0  0  0  0  0  0  0  0  0  0  0
    7.8429   -2.0868    0.0000 C   0  0  0  0  0  0  0  0  0  0  0  0
    8.8933   -1.0160    0.0000 C   0  0  0  0  0  0  0  0  0  0  0  0
    8.4911    0.4291    0.0000 C   0  0  0  0  0  0  0  0  0  0  0  0
    1.6304    0.8550    0.0000 C   0  0  0  0  0  0  0  0  0  0  0  0
    0.1779    1.2293    0.0000 C   0  0  0  0  0  0  0  0  0  0  0  0
   -0.8725    0.1584    0.0000 C   0  0  0  0  0  0  0  0  0  0  0  0
   -2.3251    0.5326    0.0000 F   0  0  0  0  0  0  0  0  0  0  0  0
   -2.9732   -1.9833    0.0000 N   0  0  0  0  0  0  0  0  0  0  0  0
   -3.9406   -3.1297    0.0000 C   0  0  0  0  0  0  0  0  0  0  0  0
   -5.4400   -3.0881    0.0000 C   0  0  0  0  0  0  0  0  0  0  0  0
   -6.3424   -1.8899    0.0000 C   0  0  0  0  0  0  0  0  0  0  0  0
   -5.9682   -0.4373    0.0000 N   0  0  0  0  0  0  0  0  0  0  0  0
   -7.1146    0.5301    0.0000 C   0  0  0  0  0  0  0  0  0  0  0  0
   -8.5255    0.0210    0.0000 O   0  0  0  0  0  0  0  0  0  0  0  0
   -6.8499    2.0066    0.0000 C   0  0  0  0  0  0  0  0  0  0  0  0
   -5.6188    2.8635    0.0000 C   0  0  0  0  0  0  0  0  0  0  0  0
   -6.4757    4.0946    0.0000 C   0  0  0  0  0  0  0  0  0  0  0  0
   -7.7069    3.2377    0.0000 N   0  0  0  0  0  0  0  0  0  0  0  0
   -4.5992    0.1758    0.0000 C   0  0  0  0  0  0  0  0  0  0  0  0
   -3.2663   -0.5122    0.0000 C   0  0  0  0  0  0  0  0  0  0  0  0
  1  2  2  0
  2  3  1  0
  3  4  2  0
  4  5  1  0
  5  6  1  0
  6  7  1  0
  7  8  2  0
  8  9  1  0
  9 10  1  0
 10 11  2  0
 10 12  1  0
 12 13  2  0
 13 14  1  0
 14 15  1  0
 15 16  1  0
 16 17  1  0
  5 18  2  0
 18 19  1  0
 19 20  2  0
 20 21  1  0
  2 22  1  0
 22 23  1  0
 23 24  1  0
 24 25  1  0
 25 26  1  0
 26 27  1  0
 27 28  2  0
 27 29  1  0
 29 30  1  0
 30 31  1  0
 31 32  1  0
 26 33  1  0
 33 34  1  0
 20  3  1  0
 34 22  1  0
 13  7  1  0
 32 29  1  0
 17 12  1  0
M  END
$$$$

     RDKit          2D

 21 23  0  0  0  0  0  0  0  0999 V2000
   -6.4158    0.4046    0.0000 C   0  0  0  0  0  0  0  0  0  0  0  0
   -5.3688   -0.6695    0.0000 C   0  0  0  0  0  0  0  0  0  0  0  0
   -5.7754   -2.1133    0.0000 C   0  0  0  0  0  0  0  0  0  0  0  0
   -3.9150   -0.2997    0.0000 N   0  0  0  0  0  0  0  0  0  0  0  0
   -2.7615   -1.2585    0.0000 C   0  0  0  0  0  0  0  0  0  0  0  0
   -1.4931   -0.4576    0.0000 C   0  0  0  0  0  0  0  0  0  0  0  0
   -0.0997   -1.0130    0.0000 C   0  0  0  0  0  0  0  0  0  0  0  0
    1.0779   -0.0840    0.0000 C   0  0  0  0  0  0  0  0  0  0  0  0
    0.8622    1.4004    0.0000 N   0  0  0  0  0  0  0  0  0  0  0  0
    2.0398    2.3295    0.0000 N   0  0  0  0  0  0  0  0  0  0  0  0
    3.4332    1.7741    0.0000 C   0  0  0  0  0  0  0  0  0  0  0  0
    4.6109    2.7032    0.0000 O   0  0  0  0  0  0  0  0  0  0  0  0
    3.6490    0.2897    0.0000 C   0  0  0  0  0  0  0  0  0  0  0  0
    2.4713   -0.6393    0.0000 C   0  0  0  0  0  0  0  0  0  0  0  0
    2.6871   -2.1237    0.0000 C   0  0  0  0  0  0  0  0  0  0  0  0
    4.0805   -2.6791    0.0000 C   0  0  0  0  0  0  0  0  0  0  0  0
    5.2581   -1.7500    0.0000 C   0  0  0  0  0  0  0  0  0  0  0  0
    5.0424   -0.2656    0.0000 C   0  0  0  0  0  0  0  0  0  0  0  0
   -1.8629    0.9961    0.0000 C   0  0  0  0  0  0  0  0  0  0  0  0
   -3.3597    1.0937    0.0000 C   0  0  0  0  0  0  0  0  0  0  0  0
   -4.1605    2.3620    0.0000 F   0  0  0  0  0  0  0  0  0  0  0  0
  1  2  1  0
  2  3  1  0
  2  4  1  0
  4  5  1  0
  5  6  2  0
  6  7  1  0
  7  8  1  0
  8  9  2  0
  9 10  1  0
 10 11  1  0
 11 12  2  0
 11 13  1  0
 13 14  2  0
 14 15  1  0
 15 16  1  0
 16 17  1  0
 17 18  1  0
  6 19  1  0
 19 20  2  0
 20 21  1  0
 20  4  1  0
 14  8  1  0
 18 13  1  0
M  END
$$$$

     RDKit          2D

 17 19  0  0  0  0  0  0  0  0999 V2000
   -4.3238   -2.2082    0.0000 N   0  0  0  0  0  0  0  0  0  0  0  0
   -2.8883   -1.7727    0.0000 C   0  0  0  0  0  0  0  0  0  0  0  0
   -1.7936   -2.7982    0.0000 O   0  0  0  0  0  0  0  0  0  0  0  0
   -2.5477   -0.3119    0.0000 C   0  0  0  0  0  0  0  0  0  0  0  0
   -3.6425    0.7135    0.0000 C   0  0  0  0  0  0  0  0  0  0  0  0
   -3.3018    2.1743    0.0000 C   0  0  0  0  0  0  0  0  0  0  0  0
   -1.8664    2.6097    0.0000 C   0  0  0  0  0  0  0  0  0  0  0  0
   -0.7716    1.5843    0.0000 C   0  0  0  0  0  0  0  0  0  0  0  0
    0.7229    1.7117    0.0000 N   0  0  0  0  0  0  0  0  0  0  0  0
    1.3060    0.3297    0.0000 C   0  0  0  0  0  0  0  0  0  0  0  0
    2.7668   -0.0110    0.0000 C   0  0  0  0  0  0  0  0  0  0  0  0
    3.9010    0.9706    0.0000 C   0  0  0  0  0  0  0  0  0  0  0  0
    5.1851    0.1953    0.0000 C   0  0  0  0  0  0  0  0  0  0  0  0
    4.8444   -1.2656    0.0000 C   0  0  0  0  0  0  0  0  0  0  0  0
    3.3499   -1.3930    0.0000 C   0  0  0  0  0  0  0  0  0  0  0  0
    0.1718   -0.6519    0.0000 N   0  0  0  0  0  0  0  0  0  0  0  0
   -1.1123    0.1235    0.0000 C   0  0  0  0  0  0  0  0  0  0  0  0
  1  2  1  0
  2  3  2  0
  2  4  1  0
  4  5  2  0
  5  6  1  0
  6  7  2  0
  7  8  1  0
  8  9  1  0
  9 10  1  0
 10 11  1  0
 11 12  1  0
 12 13  1  0
 13 14  1  0
 14 15  1  0
 10 16  2  0
 16 17  1  0
 17  4  1  0
 17  8  2  0
 15 11  1  0
M  END
$$$$

     RDKit          2D

 28 31  0  0  0  0  0  0  0  0999 V2000
   -1.5491    1.5065    0.0000 C   0  0  0  0  0  0  0  0  0  0  0  0
   -2.1014    0.1119    0.0000 N   0  0  0  0  0  0  0  0  0  0  0  0
   -3.5853   -0.1071    0.0000 C   0  0  0  0  0  0  0  0  0  0  0  0
   -4.5169    1.0685    0.0000 C   0  0  0  0  0  0  0  0  0  0  0  0
   -6.0009    0.8494    0.0000 C   0  0  0  0  0  0  0  0  0  0  0  0
   -6.9325    2.0250    0.0000 C   0  0  0  0  0  0  0  0  0  0  0  0
   -8.4164    1.8060    0.0000 C   0  0  0  0  0  0  0  0  0  0  0  0
   -8.9687    0.4114    0.0000 C   0  0  0  0  0  0  0  0  0  0  0  0
   -8.0371   -0.7642    0.0000 C   0  0  0  0  0  0  0  0  0  0  0  0
   -6.5531   -0.5452    0.0000 C   0  0  0  0  0  0  0  0  0  0  0  0
   -1.1697   -1.0637    0.0000 C   0  0  0  0  0  0  0  0  0  0  0  0
   -1.7220   -2.4583    0.0000 C   0  0  0  0  0  0  0  0  0  0  0  0
   -0.7903   -3.6339    0.0000 C   0  0  0  0  0  0  0  0  0  0  0  0
    0.6936   -3.4149    0.0000 C   0  0  0  0  0  0  0  0  0  0  0  0
    1.2459   -2.0203    0.0000 C   0  0  0  0  0  0  0  0  0  0  0  0
    2.7298   -1.8012    0.0000 C   0  0  0  0  0  0  0  0  0  0  0  0
    3.2821   -0.4066    0.0000 C   0  0  0  0  0  0  0  0  0  0  0  0
    2.3504    0.7690    0.0000 N   0  0  0  0  0  0  0  0  0  0  0  0
    2.9027    2.1636    0.0000 N   0  0  0  0  0  0  0  0  0  0  0  0
    4.3866    2.3827    0.0000 C   0  0  0  0  0  0  0  0  0  0  0  0
    4.9389    3.7773    0.0000 O   0  0  0  0  0  0  0  0  0  0  0  0
    5.3182    1.2071    0.0000 C   0  0  0  0  0  0  0  0  0  0  0  0
    4.7660   -0.1876    0.0000 C   0  0  0  0  0  0  0  0  0  0  0  0
    5.6976   -1.3632    0.0000 C   0  0  0  0  0  0  0  0  0  0  0  0
    7.1815   -1.1441    0.0000 C   0  0  0  0  0  0  0  0  0  0  0  0
    7.7338    0.2505    0.0000 C   0  0  0  0  0  0  0  0  0  0  0  0
    6.8022    1.4261    0.0000 C   0  0  0  0  0  0  0  0  0  0  0  0
    0.3142   -0.8447    0.0000 C   0  0  0  0  0  0  0  0  0  0  0  0
  1  2  1  0
  2  3  1  0
  3  4  1  0
  4  5  1  0
  5  6  2  0
  6  7  1  0
  7  8  2  0
  8  9  1  0
  9 10  2  0
  2 11  1  0
 11 12  2  0
 12 13  1  0
 13 14  2  0
 14 15  1  0
 15 16  1  0
 16 17  1  0
 17 18  2  0
 18 19  1  0
 19 20  1  0
 20 21  2  0
 20 22  1  0
 22 23  2  0
 23 24  1  0
 24 25  1  0
 25 26  1  0
 26 27  1  0
 15 28  2  0
 10  5  1  0
 28 11  1  0
 23 17  1  0
 27 22  1  0
M  END
$$$$

     RDKit          2D

 22 24  0  0  0  0  0  0  0  0999 V2000
   -6.8554   -3.0853    0.0000 C   0  0  0  0  0  0  0  0  0  0  0  0
   -6.2774   -1.7011    0.0000 C   0  0  0  0  0  0  0  0  0  0  0  0
   -4.7896   -1.5096    0.0000 C   0  0  0  0  0  0  0  0  0  0  0  0
   -4.2116   -0.1254    0.0000 C   0  0  0  0  0  0  0  0  0  0  0  0
   -5.1214    1.0672    0.0000 C   0  0  0  0  0  0  0  0  0  0  0  0
   -4.5434    2.4514    0.0000 C   0  0  0  0  0  0  0  0  0  0  0  0
   -3.0556    2.6429    0.0000 C   0  0  0  0  0  0  0  0  0  0  0  0
   -2.1459    1.4503    0.0000 C   0  0  0  0  0  0  0  0  0  0  0  0
   -0.6582    1.6418    0.0000 C   0  0  0  0  0  0  0  0  0  0  0  0
    0.2515    0.4491    0.0000 C   0  0  0  0  0  0  0  0  0  0  0  0
    1.7393    0.6406    0.0000 C   0  0  0  0  0  0  0  0  0  0  0  0
    2.3173    2.0248    0.0000 N   0  0  0  0  0  0  0  0  0  0  0  0
    3.8050    2.2163    0.0000 N   0  0  0  0  0  0  0  0  0  0  0  0
    4.7147    1.0237    0.0000 C   0  0  0  0  0  0  0  0  0  0  0  0
    6.2024    1.2152    0.0000 O   0  0  0  0  0  0  0  0  0  0  0  0
    4.1367   -0.3605    0.0000 C   0  0  0  0  0  0  0  0  0  0  0  0
    2.6490   -0.5520    0.0000 C   0  0  0  0  0  0  0  0  0  0  0  0
    2.0710   -1.9362    0.0000 C   0  0  0  0  0  0  0  0  0  0  0  0
    2.9807   -3.1288    0.0000 C   0  0  0  0  0  0  0  0  0  0  0  0
    4.4684   -2.9373    0.0000 C   0  0  0  0  0  0  0  0  0  0  0  0
    5.0464   -1.5531    0.0000 C   0  0  0  0  0  0  0  0  0  0  0  0
   -2.7239    0.0661    0.0000 C   0  0  0  0  0  0  0  0  0  0  0  0
  1  2  1  0
  2  3  1  0
  3  4  1  0
  4  5  2  0
  5  6  1  0
  6  7  2  0
  7  8  1  0
  8  9  1  0
  9 10  1  0
 10 11  1  0
 11 12  2  0
 12 13  1  0
 13 14  1  0
 14 15  2  0
 14 16  1  0
 16 17  2  0
 17 18  1  0
 18 19  1  0
 19 20  1  0
 20 21  1  0
  8 22  2  0
 22  4  1  0
 17 11  1  0
 21 16  1  0
M  END
$$$$

     RDKit          2D

 24 27  0  0  0  0  0  0  0  0999 V2000
   -4.4476   -3.1502    0.0000 O   0  0  0  0  0  0  0  0  0  0  0  0
   -5.1448   -1.8221    0.0000 C   0  0  0  0  0  0  0  0  0  0  0  0
   -6.5769   -1.3760    0.0000 C   0  0  0  0  0  0  0  0  0  0  0  0
   -6.1308    0.0561    0.0000 C   0  0  0  0  0  0  0  0  0  0  0  0
   -4.6987   -0.3900    0.0000 N   0  0  0  0  0  0  0  0  0  0  0  0
   -3.3706    0.3072    0.0000 C   0  0  0  0  0  0  0  0  0  0  0  0
   -2.1027   -0.4943    0.0000 C   0  0  0  0  0  0  0  0  0  0  0  0
   -0.7746    0.2029    0.0000 C   0  0  0  0  0  0  0  0  0  0  0  0
    0.4933   -0.5987    0.0000 C   0  0  0  0  0  0  0  0  0  0  0  0
    1.8214    0.0986    0.0000 C   0  0  0  0  0  0  0  0  0  0  0  0
    1.8816    1.5974    0.0000 N   0  0  0  0  0  0  0  0  0  0  0  0
    3.2097    2.2946    0.0000 N   0  0  0  0  0  0  0  0  0  0  0  0
    4.4776    1.4930    0.0000 C   0  0  0  0  0  0  0  0  0  0  0  0
    5.8057    2.1903    0.0000 O   0  0  0  0  0  0  0  0  0  0  0  0
    4.4174   -0.0057    0.0000 C   0  0  0  0  0  0  0  0  0  0  0  0
    3.0892   -0.7030    0.0000 C   0  0  0  0  0  0  0  0  0  0  0  0
    3.0290   -2.2018    0.0000 C   0  0  0  0  0  0  0  0  0  0  0  0
    4.2969   -3.0033    0.0000 C   0  0  0  0  0  0  0  0  0  0  0  0
    5.6250   -2.3061    0.0000 C   0  0  0  0  0  0  0  0  0  0  0  0
    5.6852   -0.8073    0.0000 C   0  0  0  0  0  0  0  0  0  0  0  0
   -0.7144    1.7017    0.0000 C   0  0  0  0  0  0  0  0  0  0  0  0
   -1.9823    2.5033    0.0000 C   0  0  0  0  0  0  0  0  0  0  0  0
   -3.3104    1.8060    0.0000 C   0  0  0  0  0  0  0  0  0  0  0  0
   -4.5782    2.6076    0.0000 F   0  0  0  0  0  0  0  0  0  0  0  0
  1  2  2  0
  2  3  1  0
  3  4  1  0
  4  5  1  0
  5  6  1  0
  6  7  2  0
  7  8  1  0
  8  9  1  0
  9 10  1  0
 10 11  2  0
 11 12  1  0
 12 13  1  0
 13 14  2  0
 13 15  1  0
 15 16  2  0
 16 17  1  0
 17 18  1  0
 18 19  1  0
 19 20  1  0
  8 21  2  0
 21 22  1  0
 22 23  2  0
 23 24  1  0
  5  2  1  0
 23  6  1  0
 16 10  1  0
 20 15  1  0
M  END
$$$$

     RDKit          2D

 35 39  0  0  0  0  0  0  0  0999 V2000
   -0.6537   -3.7410    0.0000 O   0  0  0  0  0  0  0  0  0  0  0  0
   -1.0560   -2.2959    0.0000 C   0  0  0  0  0  0  0  0  0  0  0  0
   -0.0057   -1.2250    0.0000 C   0  0  0  0  0  0  0  0  0  0  0  0
    1.4469   -1.5991    0.0000 C   0  0  0  0  0  0  0  0  0  0  0  0
    2.4972   -0.5282    0.0000 C   0  0  0  0  0  0  0  0  0  0  0  0
    3.9498   -0.9023    0.0000 C   0  0  0  0  0  0  0  0  0  0  0  0
    5.0001    0.1687    0.0000 C   0  0  0  0  0  0  0  0  0  0  0  0
    4.5978    1.6137    0.0000 N   0  0  0  0  0  0  0  0  0  0  0  0
    5.6480    2.6846    0.0000 N   0  0  0  0  0  0  0  0  0  0  0  0
    7.1006    2.3105    0.0000 C   0  0  0  0  0  0  0  0  0  0  0  0
    8.1509    3.3815    0.0000 O   0  0  0  0  0  0  0  0  0  0  0  0
    7.5030    0.8655    0.0000 C   0  0  0  0  0  0  0  0  0  0  0  0
    6.4527   -0.2054    0.0000 C   0  0  0  0  0  0  0  0  0  0  0  0
    6.8550   -1.6505    0.0000 N   0  0  0  0  0  0  0  0  0  0  0  0
    8.3076   -2.0246    0.0000 C   0  0  0  0  0  0  0  0  0  0  0  0
    9.3579   -0.9537    0.0000 C   0  0  0  0  0  0  0  0  0  0  0  0
    8.9556    0.4914    0.0000 C   0  0  0  0  0  0  0  0  0  0  0  0
    2.0949    0.9169    0.0000 C   0  0  0  0  0  0  0  0  0  0  0  0
    0.6423    1.2910    0.0000 C   0  0  0  0  0  0  0  0  0  0  0  0
   -0.4080    0.2201    0.0000 C   0  0  0  0  0  0  0  0  0  0  0  0
   -1.8606    0.5942    0.0000 F   0  0  0  0  0  0  0  0  0  0  0  0
   -2.5086   -1.9218    0.0000 N   0  0  0  0  0  0  0  0  0  0  0  0
   -2.9109   -0.4768    0.0000 C   0  0  0  0  0  0  0  0  0  0  0  0
   -4.3635   -0.1027    0.0000 C   0  0  0  0  0  0  0  0  0  0  0  0
   -5.4138   -1.1736    0.0000 N   0  0  0  0  0  0  0  0  0  0  0  0
   -6.8664   -0.7995    0.0000 C   0  0  0  0  0  0  0  0  0  0  0  0
   -7.9167   -1.8704    0.0000 O   0  0  0  0  0  0  0  0  0  0  0  0
   -7.2687    0.6456    0.0000 C   0  0  0  0  0  0  0  0  0  0  0  0
   -6.2184    1.7165    0.0000 C   0  0  0  0  0  0  0  0  0  0  0  0
   -6.6207    3.1615    0.0000 C   0  0  0  0  0  0  0  0  0  0  0  0
   -8.0733    3.5356    0.0000 C   0  0  0  0  0  0  0  0  0  0  0  0
   -9.1236    2.4647    0.0000 C   0  0  0  0  0  0  0  0  0  0  0  0
   -8.7213    1.0197    0.0000 C   0  0  0  0  0  0  0  0  0  0  0  0
   -5.0115   -2.6186    0.0000 C   0  0  0  0  0  0  0  0  0  0  0  0
   -3.5589   -2.9927    0.0000 C   0  0  0  0  0  0  0  0  0  0  0  0
  1  2  2  0
  2  3  1  0
  3  4  2  0
  4  5  1  0
  5  6  1  0
  6  7  1  0
  7  8  2  0
  8  9  1  0
  9 10  1  0
 10 11  2  0
 10 12  1  0
 12 13  2  0
 13 14  1  0
 14 15  1  0
 15 16  1  0
 16 17  1  0
  5 18  2  0
 18 19  1  0
 19 20  2  0
 20 21  1  0
  2 22  1  0
 22 23  1  0
 23 24  1  0
 24 25  1  0
 25 26  1  0
 26 27  2  0
 26 28  1  0
 28 29  1  0
 29 30  1  0
 30 31  1  0
 31 32  1  0
 32 33  1  0
 25 34  1  0
 34 35  1  0
 20  3  1  0
 35 22  1  0
 13  7  1  0
 33 28  1  0
 17 12  1  0
M  END
$$$$

     RDKit          2D

 28 31  0  0  0  0  0  0  0  0999 V2000
   -1.2834    0.6498    0.0000 O   0  0  0  0  0  0  0  0  0  0  0  0
   -2.6551    0.0428    0.0000 C   0  0  0  0  0  0  0  0  0  0  0  0
   -2.8154   -1.4486    0.0000 N   0  0  0  0  0  0  0  0  0  0  0  0
   -1.6039   -2.3331    0.0000 C   0  0  0  0  0  0  0  0  0  0  0  0
   -1.7641   -3.8245    0.0000 C   0  0  0  0  0  0  0  0  0  0  0  0
   -0.5527   -4.7090    0.0000 C   0  0  0  0  0  0  0  0  0  0  0  0
    0.8191   -4.1021    0.0000 C   0  0  0  0  0  0  0  0  0  0  0  0
    0.9793   -2.6106    0.0000 C   0  0  0  0  0  0  0  0  0  0  0  0
    2.3511   -2.0037    0.0000 C   0  0  0  0  0  0  0  0  0  0  0  0
    2.5113   -0.5123    0.0000 C   0  0  0  0  0  0  0  0  0  0  0  0
    1.2998    0.3722    0.0000 N   0  0  0  0  0  0  0  0  0  0  0  0
    1.4601    1.8636    0.0000 N   0  0  0  0  0  0  0  0  0  0  0  0
    2.8318    2.4705    0.0000 C   0  0  0  0  0  0  0  0  0  0  0  0
    2.9921    3.9619    0.0000 O   0  0  0  0  0  0  0  0  0  0  0  0
    4.0433    1.5860    0.0000 C   0  0  0  0  0  0  0  0  0  0  0  0
    3.8831    0.0946    0.0000 C   0  0  0  0  0  0  0  0  0  0  0  0
    5.0945   -0.7899    0.0000 C   0  0  0  0  0  0  0  0  0  0  0  0
    6.4663   -0.1830    0.0000 C   0  0  0  0  0  0  0  0  0  0  0  0
    6.6265    1.3084    0.0000 C   0  0  0  0  0  0  0  0  0  0  0  0
    5.4150    2.1929    0.0000 C   0  0  0  0  0  0  0  0  0  0  0  0
   -0.2321   -1.7261    0.0000 C   0  0  0  0  0  0  0  0  0  0  0  0
   -3.8666    0.9273    0.0000 C   0  0  0  0  0  0  0  0  0  0  0  0
   -3.7063    2.4188    0.0000 C   0  0  0  0  0  0  0  0  0  0  0  0
   -4.9178    3.3033    0.0000 C   0  0  0  0  0  0  0  0  0  0  0  0
   -6.2895    2.6963    0.0000 C   0  0  0  0  0  0  0  0  0  0  0  0
   -6.4498    1.2049    0.0000 C   0  0  0  0  0  0  0  0  0  0  0  0
   -5.2383    0.3204    0.0000 C   0  0  0  0  0  0  0  0  0  0  0  0
   -5.3986   -1.1710    0.0000 Cl  0  0  0  0  0  0  0  0  0  0  0  0
  1  2  2  0
  2  3  1  0
  3  4  1  0
  4  5  2  0
  5  6  1  0
  6  7  2  0
  7  8  1  0
  8  9  1  0
  9 10  1  0
 10 11  2  0
 11 12  1  0
 12 13  1  0
 13 14  2  0
 13 15  1  0
 15 16  2  0
 16 17  1  0
 17 18  1  0
 18 19  1  0
 19 20  1  0
  8 21  2  0
  2 22  1  0
 22 23  2  0
 23 24  1  0
 24 25  2  0
 25 26  1  0
 26 27  2  0
 27 28  1  0
 21  4  1  0
 27 22  1  0
 16 10  1  0
 20 15  1  0
M  END
$$$$

     RDKit          2D

 28 31  0  0  0  0  0  0  0  0999 V2000
   -0.5860    4.5276    0.0000 C   0  0  0  0  0  0  0  0  0  0  0  0
   -1.5945    3.4173    0.0000 N   0  0  0  0  0  0  0  0  0  0  0  0
   -3.0325    3.8442    0.0000 C   0  0  0  0  0  0  0  0  0  0  0  0
   -4.2628    2.9862    0.0000 C   0  0  0  0  0  0  0  0  0  0  0  0
   -4.3591    1.4893    0.0000 C   0  0  0  0  0  0  0  0  0  0  0  0
   -3.2488    0.4807    0.0000 N   0  0  0  0  0  0  0  0  0  0  0  0
   -3.6757   -0.9572    0.0000 C   0  0  0  0  0  0  0  0  0  0  0  0
   -5.1345   -1.3065    0.0000 O   0  0  0  0  0  0  0  0  0  0  0  0
   -2.6439   -2.0460    0.0000 C   0  0  0  0  0  0  0  0  0  0  0  0
   -3.0708   -3.4839    0.0000 C   0  0  0  0  0  0  0  0  0  0  0  0
   -2.0390   -4.5726    0.0000 C   0  0  0  0  0  0  0  0  0  0  0  0
   -0.5802   -4.2234    0.0000 C   0  0  0  0  0  0  0  0  0  0  0  0
   -0.1532   -2.7854    0.0000 C   0  0  0  0  0  0  0  0  0  0  0  0
    1.3055   -2.4362    0.0000 C   0  0  0  0  0  0  0  0  0  0  0  0
    1.7325   -0.9982    0.0000 C   0  0  0  0  0  0  0  0  0  0  0  0
    0.7006    0.0905    0.0000 N   0  0  0  0  0  0  0  0  0  0  0  0
    1.1276    1.5285    0.0000 N   0  0  0  0  0  0  0  0  0  0  0  0
    2.5863    1.8777    0.0000 C   0  0  0  0  0  0  0  0  0  0  0  0
    3.0133    3.3157    0.0000 O   0  0  0  0  0  0  0  0  0  0  0  0
    3.6182    0.7890    0.0000 C   0  0  0  0  0  0  0  0  0  0  0  0
    3.1912   -0.6490    0.0000 C   0  0  0  0  0  0  0  0  0  0  0  0
    4.2231   -1.7377    0.0000 C   0  0  0  0  0  0  0  0  0  0  0  0
    5.6819   -1.3884    0.0000 C   0  0  0  0  0  0  0  0  0  0  0  0
    6.1088    0.0495    0.0000 C   0  0  0  0  0  0  0  0  0  0  0  0
    5.0769    1.1382    0.0000 C   0  0  0  0  0  0  0  0  0  0  0  0
   -1.1851   -1.6967    0.0000 C   0  0  0  0  0  0  0  0  0  0  0  0
   -1.7680    0.7200    0.0000 C   0  0  0  0  0  0  0  0  0  0  0  0
   -1.0318    2.0269    0.0000 C   0  0  0  0  0  0  0  0  0  0  0  0
  1  2  1  0
  2  3  1  0
  3  4  1  0
  4  5  1  0
  5  6  1  0
  6  7  1  0
  7  8  2  0
  7  9  1  0
  9 10  2  0
 10 11  1  0
 11 12  2  0
 12 13  1  0
 13 14  1  0
 14 15  1  0
 15 16  2  0
 16 17  1  0
 17 18  1  0
 18 19  2  0
 18 20  1  0
 20 21  2  0
 21 22  1  0
 22 23  1  0
 23 24  1  0
 24 25  1  0
 13 26  2  0
  6 27  1  0
 27 28  1  0
 28  2  1  0
 26  9  1  0
 21 15  1  0
 25 20  1  0
M  END
$$$$

     RDKit          2D

 25 28  0  0  0  0  0  0  0  0999 V2000
   -5.6003   -1.1146    0.0000 C   0  0  0  0  0  0  0  0  0  0  0  0
   -4.9536    0.2389    0.0000 C   0  0  0  0  0  0  0  0  0  0  0  0
   -5.8024    1.4756    0.0000 N   0  0  0  0  0  0  0  0  0  0  0  0
   -5.1557    2.8291    0.0000 C   0  0  0  0  0  0  0  0  0  0  0  0
   -3.6603    2.9458    0.0000 C   0  0  0  0  0  0  0  0  0  0  0  0
   -2.8115    1.7090    0.0000 C   0  0  0  0  0  0  0  0  0  0  0  0
   -3.4581    0.3556    0.0000 C   0  0  0  0  0  0  0  0  0  0  0  0
   -2.6094   -0.8812    0.0000 C   0  0  0  0  0  0  0  0  0  0  0  0
   -3.2560   -2.2346    0.0000 C   0  0  0  0  0  0  0  0  0  0  0  0
   -2.4072   -3.4714    0.0000 C   0  0  0  0  0  0  0  0  0  0  0  0
   -0.9118   -3.3547    0.0000 C   0  0  0  0  0  0  0  0  0  0  0  0
   -0.2651   -2.0012    0.0000 C   0  0  0  0  0  0  0  0  0  0  0  0
    1.2303   -1.8845    0.0000 C   0  0  0  0  0  0  0  0  0  0  0  0
    1.8770   -0.5311    0.0000 C   0  0  0  0  0  0  0  0  0  0  0  0
    1.0282    0.7057    0.0000 N   0  0  0  0  0  0  0  0  0  0  0  0
    1.6749    2.0591    0.0000 N   0  0  0  0  0  0  0  0  0  0  0  0
    3.1703    2.1758    0.0000 C   0  0  0  0  0  0  0  0  0  0  0  0
    3.8170    3.5293    0.0000 O   0  0  0  0  0  0  0  0  0  0  0  0
    4.0191    0.9391    0.0000 C   0  0  0  0  0  0  0  0  0  0  0  0
    3.3725   -0.4144    0.0000 C   0  0  0  0  0  0  0  0  0  0  0  0
    4.2213   -1.6511    0.0000 C   0  0  0  0  0  0  0  0  0  0  0  0
    5.7167   -1.5344    0.0000 C   0  0  0  0  0  0  0  0  0  0  0  0
    6.3634   -0.1810    0.0000 C   0  0  0  0  0  0  0  0  0  0  0  0
    5.5146    1.0558    0.0000 C   0  0  0  0  0  0  0  0  0  0  0  0
   -1.1139   -0.7645    0.0000 C   0  0  0  0  0  0  0  0  0  0  0  0
  1  2  1  0
  2  3  2  0
  3  4  1  0
  4  5  2  0
  5  6  1  0
  6  7  2  0
  7  8  1  0
  8  9  2  0
  9 10  1  0
 10 11  2  0
 11 12  1  0
 12 13  1  0
 13 14  1  0
 14 15  2  0
 15 16  1  0
 16 17  1  0
 17 18  2  0
 17 19  1  0
 19 20  2  0
 20 21  1  0
 21 22  1  0
 22 23  1  0
 23 24  1  0
 12 25  2  0
  7  2  1  0
 25  8  1  0
 20 14  1  0
 24 19  1  0
M  END
$$$$

     RDKit          2D

 21 23  0  0  0  0  0  0  0  0999 V2000
   -6.0991    1.7971    0.0000 N   0  0  0  0  0  0  0  0  0  0  0  0
   -5.7185    0.3462    0.0000 C   0  0  0  0  0  0  0  0  0  0  0  0
   -6.7848   -0.7089    0.0000 O   0  0  0  0  0  0  0  0  0  0  0  0
   -4.2717   -0.0497    0.0000 C   0  0  0  0  0  0  0  0  0  0  0  0
   -3.2055    1.0053    0.0000 C   0  0  0  0  0  0  0  0  0  0  0  0
   -1.7586    0.6095    0.0000 C   0  0  0  0  0  0  0  0  0  0  0  0
   -1.3781   -0.8415    0.0000 C   0  0  0  0  0  0  0  0  0  0  0  0
    0.0687   -1.2373    0.0000 C   0  0  0  0  0  0  0  0  0  0  0  0
    1.1350   -0.1823    0.0000 C   0  0  0  0  0  0  0  0  0  0  0  0
    0.7544    1.2686    0.0000 N   0  0  0  0  0  0  0  0  0  0  0  0
    1.8207    2.3237    0.0000 N   0  0  0  0  0  0  0  0  0  0  0  0
    3.2675    1.9278    0.0000 C   0  0  0  0  0  0  0  0  0  0  0  0
    4.3337    2.9829    0.0000 O   0  0  0  0  0  0  0  0  0  0  0  0
    3.6481    0.4769    0.0000 C   0  0  0  0  0  0  0  0  0  0  0  0
    2.5818   -0.5782    0.0000 C   0  0  0  0  0  0  0  0  0  0  0  0
    2.9624   -2.0291    0.0000 N   0  0  0  0  0  0  0  0  0  0  0  0
    4.4092   -2.4249    0.0000 C   0  0  0  0  0  0  0  0  0  0  0  0
    5.4754   -1.3699    0.0000 C   0  0  0  0  0  0  0  0  0  0  0  0
    5.0949    0.0810    0.0000 C   0  0  0  0  0  0  0  0  0  0  0  0
   -2.4443   -1.8965    0.0000 C   0  0  0  0  0  0  0  0  0  0  0  0
   -3.8911   -1.5006    0.0000 C   0  0  0  0  0  0  0  0  0  0  0  0
  1  2  1  0
  2  3  2  0
  2  4  1  0
  4  5  2  0
  5  6  1  0
  6  7  2  0
  7  8  1  0
  8  9  1  0
  9 10  2  0
 10 11  1  0
 11 12  1  0
 12 13  2  0
 12 14  1  0
 14 15  2  0
 15 16  1  0
 16 17  1  0
 17 18  1  0
 18 19  1  0
  7 20  1  0
 20 21  2  0
 21  4  1  0
 15  9  1  0
 19 14  1  0
M  END
$$$$

     RDKit          2D

 36 40  0  0  0  0  0  0  0  0999 V2000
   -9.5002   -0.0458    0.0000 C   0  0  0  0  0  0  0  0  0  0  0  0
   -8.4494    1.0247    0.0000 C   0  0  0  0  0  0  0  0  0  0  0  0
   -8.8511    2.4699    0.0000 C   0  0  0  0  0  0  0  0  0  0  0  0
   -7.8004    3.5404    0.0000 C   0  0  0  0  0  0  0  0  0  0  0  0
   -6.3479    3.1656    0.0000 C   0  0  0  0  0  0  0  0  0  0  0  0
   -5.9462    1.7204    0.0000 C   0  0  0  0  0  0  0  0  0  0  0  0
   -6.9970    0.6499    0.0000 C   0  0  0  0  0  0  0  0  0  0  0  0
   -6.5953   -0.7953    0.0000 C   0  0  0  0  0  0  0  0  0  0  0  0
   -7.6460   -1.8658    0.0000 O   0  0  0  0  0  0  0  0  0  0  0  0
   -5.1428   -1.1700    0.0000 N   0  0  0  0  0  0  0  0  0  0  0  0
   -4.7411   -2.6152    0.0000 C   0  0  0  0  0  0  0  0  0  0  0  0
   -3.2887   -2.9899    0.0000 C   0  0  0  0  0  0  0  0  0  0  0  0
   -2.2380   -1.9194    0.0000 N   0  0  0  0  0  0  0  0  0  0  0  0
   -0.7855   -2.2942    0.0000 C   0  0  0  0  0  0  0  0  0  0  0  0
   -0.3838   -3.7394    0.0000 O   0  0  0  0  0  0  0  0  0  0  0  0
    0.2652   -1.2237    0.0000 C   0  0  0  0  0  0  0  0  0  0  0  0
    1.7177   -1.5984    0.0000 C   0  0  0  0  0  0  0  0  0  0  0  0
    2.7684   -0.5279    0.0000 C   0  0  0  0  0  0  0  0  0  0  0  0
    4.2208   -0.9026    0.0000 C   0  0  0  0  0  0  0  0  0  0  0  0
    5.2716    0.1679    0.0000 C   0  0  0  0  0  0  0  0  0  0  0  0
    4.8699    1.6131    0.0000 N   0  0  0  0  0  0  0  0  0  0  0  0
    5.9206    2.6836    0.0000 N   0  0  0  0  0  0  0  0  0  0  0  0
    7.3731    2.3088    0.0000 C   0  0  0  0  0  0  0  0  0  0  0  0
    8.4238    3.3793    0.0000 O   0  0  0  0  0  0  0  0  0  0  0  0
    7.7748    0.8636    0.0000 C   0  0  0  0  0  0  0  0  0  0  0  0
    6.7240   -0.2069    0.0000 C   0  0  0  0  0  0  0  0  0  0  0  0
    7.1257   -1.6521    0.0000 N   0  0  0  0  0  0  0  0  0  0  0  0
    8.5782   -2.0268    0.0000 C   0  0  0  0  0  0  0  0  0  0  0  0
    9.6289   -0.9563    0.0000 C   0  0  0  0  0  0  0  0  0  0  0  0
    9.2272    0.4889    0.0000 C   0  0  0  0  0  0  0  0  0  0  0  0
    2.3667    0.9173    0.0000 C   0  0  0  0  0  0  0  0  0  0  0  0
    0.9143    1.2920    0.0000 C   0  0  0  0  0  0  0  0  0  0  0  0
   -0.1365    0.2215    0.0000 C   0  0  0  0  0  0  0  0  0  0  0  0
   -1.5889    0.5963    0.0000 F   0  0  0  0  0  0  0  0  0  0  0  0
   -2.6397   -0.4742    0.0000 C   0  0  0  0  0  0  0  0  0  0  0  0
   -4.0921   -0.0995    0.0000 C   0  0  0  0  0  0  0  0  0  0  0  0
  1  2  1  0
  2  3  2  0
  3  4  1  0
  4  5  2  0
  5  6  1  0
  6  7  2  0
  7  8  1  0
  8  9  2  0
  8 10  1  0
 10 11  1  0
 11 12  1  0
 12 13  1  0
 13 14  1  0
 14 15  2  0
 14 16  1  0
 16 17  2  0
 17 18  1  0
 18 19  1  0
 19 20  1  0
 20 21  2  0
 21 22  1  0
 22 23  1  0
 23 24  2  0
 23 25  1  0
 25 26  2  0
 26 27  1  0
 27 28  1  0
 28 29  1  0
 29 30  1  0
 18 31  2  0
 31 32  1  0
 32 33  2  0
 33 34  1  0
 13 35  1  0
 35 36  1  0
  7  2  1  0
 36 10  1  0
 33 16  1  0
 26 20  1  0
 30 25  1  0
M  END
$$$$

     RDKit          2D

 29 32  0  0  0  0  0  0  0  0999 V2000
   -0.9329   -0.3341    0.0000 O   0  0  0  0  0  0  0  0  0  0  0  0
   -2.0172   -1.3705    0.0000 C   0  0  0  0  0  0  0  0  0  0  0  0
   -3.4569   -0.9498    0.0000 N   0  0  0  0  0  0  0  0  0  0  0  0
   -3.8124    0.5075    0.0000 C   0  0  0  0  0  0  0  0  0  0  0  0
   -5.2522    0.9283    0.0000 C   0  0  0  0  0  0  0  0  0  0  0  0
   -5.6077    2.3855    0.0000 C   0  0  0  0  0  0  0  0  0  0  0  0
   -7.0475    2.8063    0.0000 C   0  0  0  0  0  0  0  0  0  0  0  0
   -8.1318    1.7698    0.0000 C   0  0  0  0  0  0  0  0  0  0  0  0
   -7.7763    0.3125    0.0000 C   0  0  0  0  0  0  0  0  0  0  0  0
   -6.3365   -0.1082    0.0000 C   0  0  0  0  0  0  0  0  0  0  0  0
   -1.6617   -2.8278    0.0000 N   0  0  0  0  0  0  0  0  0  0  0  0
   -0.2219   -3.2486    0.0000 C   0  0  0  0  0  0  0  0  0  0  0  0
    0.1336   -4.7059    0.0000 C   0  0  0  0  0  0  0  0  0  0  0  0
    1.5734   -5.1266    0.0000 C   0  0  0  0  0  0  0  0  0  0  0  0
    2.6576   -4.0901    0.0000 C   0  0  0  0  0  0  0  0  0  0  0  0
    2.3022   -2.6329    0.0000 C   0  0  0  0  0  0  0  0  0  0  0  0
    3.3864   -1.5964    0.0000 C   0  0  0  0  0  0  0  0  0  0  0  0
    3.0309   -0.1391    0.0000 C   0  0  0  0  0  0  0  0  0  0  0  0
    1.5912    0.2817    0.0000 N   0  0  0  0  0  0  0  0  0  0  0  0
    1.2357    1.7389    0.0000 N   0  0  0  0  0  0  0  0  0  0  0  0
    2.3200    2.7754    0.0000 C   0  0  0  0  0  0  0  0  0  0  0  0
    1.9645    4.2327    0.0000 O   0  0  0  0  0  0  0  0  0  0  0  0
    3.7597    2.3547    0.0000 C   0  0  0  0  0  0  0  0  0  0  0  0
    4.1152    0.8974    0.0000 C   0  0  0  0  0  0  0  0  0  0  0  0
    5.5550    0.4766    0.0000 C   0  0  0  0  0  0  0  0  0  0  0  0
    6.6393    1.5131    0.0000 C   0  0  0  0  0  0  0  0  0  0  0  0
    6.2838    2.9704    0.0000 C   0  0  0  0  0  0  0  0  0  0  0  0
    4.8440    3.3912    0.0000 C   0  0  0  0  0  0  0  0  0  0  0  0
    0.8624   -2.2121    0.0000 C   0  0  0  0  0  0  0  0  0  0  0  0
  1  2  2  0
  2  3  1  0
  3  4  1  0
  4  5  1  0
  5  6  2  0
  6  7  1  0
  7  8  2  0
  8  9  1  0
  9 10  2  0
  2 11  1  0
 11 12  1  0
 12 13  2  0
 13 14  1  0
 14 15  2  0
 15 16  1  0
 16 17  1  0
 17 18  1  0
 18 19  2  0
 19 20  1  0
 20 21  1  0
 21 22  2  0
 21 23  1  0
 23 24  2  0
 24 25  1  0
 25 26  1  0
 26 27  1  0
 27 28  1  0
 16 29  2  0
 10  5  1  0
 29 12  1  0
 24 18  1  0
 28 23  1  0
M  END
$$$$

     RDKit          2D

 34 37  0  0  0  0  0  0  0  0999 V2000
  -10.4917    2.8182    0.0000 C   0  0  0  0  0  0  0  0  0  0  0  0
   -9.2982    1.9095    0.0000 C   0  0  0  0  0  0  0  0  0  0  0  0
   -7.9146    2.4888    0.0000 N   0  0  0  0  0  0  0  0  0  0  0  0
   -7.7244    3.9767    0.0000 C   0  0  0  0  0  0  0  0  0  0  0  0
   -6.7211    1.5801    0.0000 C   0  0  0  0  0  0  0  0  0  0  0  0
   -6.9113    0.0922    0.0000 C   0  0  0  0  0  0  0  0  0  0  0  0
   -5.7179   -0.8165    0.0000 N   0  0  0  0  0  0  0  0  0  0  0  0
   -6.0188   -2.2860    0.0000 C   0  0  0  0  0  0  0  0  0  0  0  0
   -5.0574   -3.4374    0.0000 C   0  0  0  0  0  0  0  0  0  0  0  0
   -3.5578   -3.4038    0.0000 C   0  0  0  0  0  0  0  0  0  0  0  0
   -2.6492   -2.2103    0.0000 N   0  0  0  0  0  0  0  0  0  0  0  0
   -1.1796   -2.5112    0.0000 C   0  0  0  0  0  0  0  0  0  0  0  0
   -0.7054   -3.9343    0.0000 O   0  0  0  0  0  0  0  0  0  0  0  0
   -0.1843   -1.3890    0.0000 C   0  0  0  0  0  0  0  0  0  0  0  0
    1.2852   -1.6899    0.0000 C   0  0  0  0  0  0  0  0  0  0  0  0
    2.2805   -0.5677    0.0000 C   0  0  0  0  0  0  0  0  0  0  0  0
    3.7500   -0.8685    0.0000 C   0  0  0  0  0  0  0  0  0  0  0  0
    4.7454    0.2537    0.0000 C   0  0  0  0  0  0  0  0  0  0  0  0
    4.2712    1.6768    0.0000 N   0  0  0  0  0  0  0  0  0  0  0  0
    5.2665    2.7990    0.0000 N   0  0  0  0  0  0  0  0  0  0  0  0
    6.7360    2.4981    0.0000 C   0  0  0  0  0  0  0  0  0  0  0  0
    7.7313    3.6203    0.0000 O   0  0  0  0  0  0  0  0  0  0  0  0
    7.2102    1.0750    0.0000 C   0  0  0  0  0  0  0  0  0  0  0  0
    6.2149   -0.0472    0.0000 C   0  0  0  0  0  0  0  0  0  0  0  0
    6.6891   -1.4703    0.0000 N   0  0  0  0  0  0  0  0  0  0  0  0
    8.1586   -1.7711    0.0000 C   0  0  0  0  0  0  0  0  0  0  0  0
    9.1539   -0.6489    0.0000 C   0  0  0  0  0  0  0  0  0  0  0  0
    8.6797    0.7742    0.0000 C   0  0  0  0  0  0  0  0  0  0  0  0
    1.8063    0.8554    0.0000 C   0  0  0  0  0  0  0  0  0  0  0  0
    0.3368    1.1563    0.0000 C   0  0  0  0  0  0  0  0  0  0  0  0
   -0.6585    0.0341    0.0000 C   0  0  0  0  0  0  0  0  0  0  0  0
   -2.1280    0.3350    0.0000 N   0  0  0  0  0  0  0  0  0  0  0  0
   -3.0157   -0.7558    0.0000 C   0  0  0  0  0  0  0  0  0  0  0  0
   -4.3814   -0.1355    0.0000 C   0  0  0  0  0  0  0  0  0  0  0  0
  1  2  1  0
  2  3  1  0
  3  4  1  0
  3  5  1  0
  5  6  1  0
  6  7  1  0
  7  8  1  0
  8  9  1  0
  9 10  1  0
 10 11  1  0
 11 12  1  0
 12 13  2  0
 12 14  1  0
 14 15  2  0
 15 16  1  0
 16 17  1  0
 17 18  1  0
 18 19  2  0
 19 20  1  0
 20 21  1  0
 21 22  2  0
 21 23  1  0
 23 24  2  0
 24 25  1  0
 25 26  1  0
 26 27  1  0
 27 28  1  0
 16 29  2  0
 29 30  1  0
 30 31  2  0
 31 32  1  0
 11 33  1  0
 33 34  1  0
 34  7  1  0
 31 14  1  0
 24 18  1  0
 28 23  1  0
M  END
$$$$

     RDKit          2D

 20 22  0  0  0  0  0  0  0  0999 V2000
   -5.8315    1.7234    0.0000 C   0  0  0  0  0  0  0  0  0  0  0  0
   -5.5434    0.2513    0.0000 C   0  0  0  0  0  0  0  0  0  0  0  0
   -6.6742   -0.7342    0.0000 C   0  0  0  0  0  0  0  0  0  0  0  0
   -4.1245   -0.2352    0.0000 N   0  0  0  0  0  0  0  0  0  0  0  0
   -3.6841   -1.6691    0.0000 C   0  0  0  0  0  0  0  0  0  0  0  0
   -2.1843   -1.6933    0.0000 C   0  0  0  0  0  0  0  0  0  0  0  0
   -1.6978   -0.2744    0.0000 C   0  0  0  0  0  0  0  0  0  0  0  0
   -0.2639    0.1660    0.0000 C   0  0  0  0  0  0  0  0  0  0  0  0
    0.9352   -0.7352    0.0000 N   0  0  0  0  0  0  0  0  0  0  0  0
    2.1628    0.1268    0.0000 C   0  0  0  0  0  0  0  0  0  0  0  0
    3.6248   -0.2088    0.0000 C   0  0  0  0  0  0  0  0  0  0  0  0
    4.0652   -1.6426    0.0000 C   0  0  0  0  0  0  0  0  0  0  0  0
    5.5272   -1.9782    0.0000 N   0  0  0  0  0  0  0  0  0  0  0  0
    3.0437   -2.7410    0.0000 O   0  0  0  0  0  0  0  0  0  0  0  0
    4.6464    0.8896    0.0000 C   0  0  0  0  0  0  0  0  0  0  0  0
    4.2060    2.3235    0.0000 C   0  0  0  0  0  0  0  0  0  0  0  0
    2.7440    2.6590    0.0000 C   0  0  0  0  0  0  0  0  0  0  0  0
    1.7224    1.5607    0.0000 C   0  0  0  0  0  0  0  0  0  0  0  0
    0.2226    1.5849    0.0000 N   0  0  0  0  0  0  0  0  0  0  0  0
   -2.8969    0.6268    0.0000 C   0  0  0  0  0  0  0  0  0  0  0  0
  1  2  1  0
  2  3  1  0
  2  4  1  0
  4  5  1  0
  5  6  1  0
  6  7  1  0
  7  8  1  0
  8  9  2  0
  9 10  1  0
 10 11  2  0
 11 12  1  0
 12 13  1  0
 12 14  2  0
 11 15  1  0
 15 16  2  0
 16 17  1  0
 17 18  2  0
 18 19  1  0
  7 20  1  0
 20  4  1  0
 19  8  1  0
 18 10  1  0
M  END
$$$$

     RDKit          2D

 29 32  0  0  0  0  0  0  0  0999 V2000
   -1.3428    3.7400    0.0000 C   0  0  0  0  0  0  0  0  0  0  0  0
   -2.0174    2.4003    0.0000 C   0  0  0  0  0  0  0  0  0  0  0  0
   -1.1944    1.1462    0.0000 C   0  0  0  0  0  0  0  0  0  0  0  0
   -3.5150    2.3146    0.0000 C   0  0  0  0  0  0  0  0  0  0  0  0
   -4.5133    1.1951    0.0000 C   0  0  0  0  0  0  0  0  0  0  0  0
   -4.4277   -0.3024    0.0000 N   0  0  0  0  0  0  0  0  0  0  0  0
   -3.0879   -0.9770    0.0000 C   0  0  0  0  0  0  0  0  0  0  0  0
   -1.8338   -0.1541    0.0000 O   0  0  0  0  0  0  0  0  0  0  0  0
   -3.0023   -2.4746    0.0000 N   0  0  0  0  0  0  0  0  0  0  0  0
   -1.6625   -3.1492    0.0000 C   0  0  0  0  0  0  0  0  0  0  0  0
   -1.5769   -4.6467    0.0000 C   0  0  0  0  0  0  0  0  0  0  0  0
   -0.2371   -5.3213    0.0000 C   0  0  0  0  0  0  0  0  0  0  0  0
    1.0170   -4.4984    0.0000 C   0  0  0  0  0  0  0  0  0  0  0  0
    0.9313   -3.0008    0.0000 C   0  0  0  0  0  0  0  0  0  0  0  0
    2.1854   -2.1779    0.0000 C   0  0  0  0  0  0  0  0  0  0  0  0
    2.0998   -0.6803    0.0000 C   0  0  0  0  0  0  0  0  0  0  0  0
    0.7600   -0.0057    0.0000 N   0  0  0  0  0  0  0  0  0  0  0  0
    0.6744    1.4918    0.0000 N   0  0  0  0  0  0  0  0  0  0  0  0
    1.9285    2.3148    0.0000 C   0  0  0  0  0  0  0  0  0  0  0  0
    1.8428    3.8123    0.0000 O   0  0  0  0  0  0  0  0  0  0  0  0
    3.2682    1.6402    0.0000 C   0  0  0  0  0  0  0  0  0  0  0  0
    3.3539    0.1426    0.0000 C   0  0  0  0  0  0  0  0  0  0  0  0
    4.6936   -0.5320    0.0000 C   0  0  0  0  0  0  0  0  0  0  0  0
    5.9477    0.2910    0.0000 C   0  0  0  0  0  0  0  0  0  0  0  0
    5.8620    1.7885    0.0000 C   0  0  0  0  0  0  0  0  0  0  0  0
    4.5223    2.4631    0.0000 C   0  0  0  0  0  0  0  0  0  0  0  0
   -0.4084   -2.3262    0.0000 C   0  0  0  0  0  0  0  0  0  0  0  0
   -5.6328    2.1935    0.0000 C   0  0  0  0  0  0  0  0  0  0  0  0
   -4.6344    3.3130    0.0000 C   0  0  0  0  0  0  0  0  0  0  0  0
  1  2  1  0
  2  3  1  0
  2  4  1  0
  4  5  2  0
  5  6  1  0
  6  7  1  0
  7  8  2  0
  7  9  1  0
  9 10  1  0
 10 11  2  0
 11 12  1  0
 12 13  2  0
 13 14  1  0
 14 15  1  0
 15 16  1  0
 16 17  2  0
 17 18  1  0
 18 19  1  0
 19 20  2  0
 19 21  1  0
 21 22  2  0
 22 23  1  0
 23 24  1  0
 24 25  1  0
 25 26  1  0
 14 27  2  0
  5 28  1  0
 28 29  2  0
 29  4  1  0
 27 10  1  0
 22 16  1  0
 26 21  1  0
M  END
$$$$

     RDKit          2D

 24 27  0  0  0  0  0  0  0  0999 V2000
   -6.4367   -2.6103    0.0000 N   0  0  0  0  0  0  0  0  0  0  0  0
   -5.0621   -2.0100    0.0000 C   0  0  0  0  0  0  0  0  0  0  0  0
   -3.8549   -2.9003    0.0000 O   0  0  0  0  0  0  0  0  0  0  0  0
   -4.8947   -0.5194    0.0000 C   0  0  0  0  0  0  0  0  0  0  0  0
   -6.1019    0.3710    0.0000 C   0  0  0  0  0  0  0  0  0  0  0  0
   -5.9344    1.8616    0.0000 C   0  0  0  0  0  0  0  0  0  0  0  0
   -4.5598    2.4619    0.0000 C   0  0  0  0  0  0  0  0  0  0  0  0
   -3.3526    1.5716    0.0000 C   0  0  0  0  0  0  0  0  0  0  0  0
   -1.8832    1.8729    0.0000 N   0  0  0  0  0  0  0  0  0  0  0  0
   -1.1425    0.5686    0.0000 C   0  0  0  0  0  0  0  0  0  0  0  0
    0.3482    0.4011    0.0000 C   0  0  0  0  0  0  0  0  0  0  0  0
    0.9485   -0.9735    0.0000 C   0  0  0  0  0  0  0  0  0  0  0  0
    2.4391   -1.1409    0.0000 C   0  0  0  0  0  0  0  0  0  0  0  0
    3.3294    0.0663    0.0000 C   0  0  0  0  0  0  0  0  0  0  0  0
    4.8200   -0.1012    0.0000 C   0  0  0  0  0  0  0  0  0  0  0  0
    5.4203   -1.4758    0.0000 C   0  0  0  0  0  0  0  0  0  0  0  0
    6.9110   -1.6433    0.0000 C   0  0  0  0  0  0  0  0  0  0  0  0
    7.8013   -0.4361    0.0000 C   0  0  0  0  0  0  0  0  0  0  0  0
    7.2010    0.9386    0.0000 C   0  0  0  0  0  0  0  0  0  0  0  0
    5.7104    1.1060    0.0000 N   0  0  0  0  0  0  0  0  0  0  0  0
    2.7291    1.4409    0.0000 C   0  0  0  0  0  0  0  0  0  0  0  0
    1.2385    1.6083    0.0000 C   0  0  0  0  0  0  0  0  0  0  0  0
   -2.1541   -0.5389    0.0000 N   0  0  0  0  0  0  0  0  0  0  0  0
   -3.5200    0.0809    0.0000 C   0  0  0  0  0  0  0  0  0  0  0  0
  1  2  1  0
  2  3  2  0
  2  4  1  0
  4  5  2  0
  5  6  1  0
  6  7  2  0
  7  8  1  0
  8  9  1  0
  9 10  1  0
 10 11  1  0
 11 12  2  0
 12 13  1  0
 13 14  2  0
 14 15  1  0
 15 16  2  0
 16 17  1  0
 17 18  2  0
 18 19  1  0
 19 20  2  0
 14 21  1  0
 21 22  2  0
 10 23  2  0
 23 24  1  0
 24  4  1  0
 24  8  2  0
 22 11  1  0
 20 15  1  0
M  END
$$$$

     RDKit          2D

 28 31  0  0  0  0  0  0  0  0999 V2000
   -3.8370   -2.4238    0.0000 O   0  0  0  0  0  0  0  0  0  0  0  0
   -2.5147   -1.7155    0.0000 C   0  0  0  0  0  0  0  0  0  0  0  0
   -2.4670   -0.2163    0.0000 N   0  0  0  0  0  0  0  0  0  0  0  0
   -3.7415    0.5747    0.0000 C   0  0  0  0  0  0  0  0  0  0  0  0
   -3.6938    2.0739    0.0000 C   0  0  0  0  0  0  0  0  0  0  0  0
   -4.9683    2.8649    0.0000 C   0  0  0  0  0  0  0  0  0  0  0  0
   -6.2906    2.1566    0.0000 C   0  0  0  0  0  0  0  0  0  0  0  0
   -7.5651    2.9475    0.0000 F   0  0  0  0  0  0  0  0  0  0  0  0
   -6.3383    0.6573    0.0000 C   0  0  0  0  0  0  0  0  0  0  0  0
   -5.0638   -0.1336    0.0000 C   0  0  0  0  0  0  0  0  0  0  0  0
   -1.2402   -2.5065    0.0000 C   0  0  0  0  0  0  0  0  0  0  0  0
   -1.2879   -4.0057    0.0000 C   0  0  0  0  0  0  0  0  0  0  0  0
   -0.0134   -4.7966    0.0000 C   0  0  0  0  0  0  0  0  0  0  0  0
    1.3088   -4.0883    0.0000 C   0  0  0  0  0  0  0  0  0  0  0  0
    1.3565   -2.5891    0.0000 C   0  0  0  0  0  0  0  0  0  0  0  0
    2.6788   -1.8808    0.0000 C   0  0  0  0  0  0  0  0  0  0  0  0
    2.7265   -0.3816    0.0000 C   0  0  0  0  0  0  0  0  0  0  0  0
    1.4520    0.4094    0.0000 N   0  0  0  0  0  0  0  0  0  0  0  0
    1.4997    1.9086    0.0000 N   0  0  0  0  0  0  0  0  0  0  0  0
    2.8219    2.6169    0.0000 C   0  0  0  0  0  0  0  0  0  0  0  0
    2.8697    4.1162    0.0000 O   0  0  0  0  0  0  0  0  0  0  0  0
    4.0965    1.8260    0.0000 C   0  0  0  0  0  0  0  0  0  0  0  0
    4.0487    0.3267    0.0000 C   0  0  0  0  0  0  0  0  0  0  0  0
    5.3233   -0.4642    0.0000 C   0  0  0  0  0  0  0  0  0  0  0  0
    6.6455    0.2441    0.0000 C   0  0  0  0  0  0  0  0  0  0  0  0
    6.6932    1.7433    0.0000 C   0  0  0  0  0  0  0  0  0  0  0  0
    5.4187    2.5343    0.0000 C   0  0  0  0  0  0  0  0  0  0  0  0
    0.0820   -1.7982    0.0000 C   0  0  0  0  0  0  0  0  0  0  0  0
  1  2  2  0
  2  3  1  0
  3  4  1  0
  4  5  2  0
  5  6  1  0
  6  7  2  0
  7  8  1  0
  7  9  1  0
  9 10  2  0
  2 11  1  0
 11 12  2  0
 12 13  1  0
 13 14  2  0
 14 15  1  0
 15 16  1  0
 16 17  1  0
 17 18  2  0
 18 19  1  0
 19 20  1  0
 20 21  2  0
 20 22  1  0
 22 23  2  0
 23 24  1  0
 24 25  1  0
 25 26  1  0
 26 27  1  0
 15 28  2  0
 10  4  1  0
 28 11  1  0
 23 17  1  0
 27 22  1  0
M  END
$$$$

     RDKit          2D

 24 27  0  0  0  0  0  0  0  0999 V2000
   -4.8009   -3.5682    0.0000 N   0  0  0  0  0  0  0  0  0  0  0  0
   -3.6575   -2.5974    0.0000 C   0  0  0  0  0  0  0  0  0  0  0  0
   -2.2450   -3.1022    0.0000 O   0  0  0  0  0  0  0  0  0  0  0  0
   -3.9265   -1.1217    0.0000 C   0  0  0  0  0  0  0  0  0  0  0  0
   -5.3390   -0.6168    0.0000 C   0  0  0  0  0  0  0  0  0  0  0  0
   -5.6080    0.8588    0.0000 C   0  0  0  0  0  0  0  0  0  0  0  0
   -4.4646    1.8297    0.0000 C   0  0  0  0  0  0  0  0  0  0  0  0
   -3.0521    1.3248    0.0000 C   0  0  0  0  0  0  0  0  0  0  0  0
   -1.7317    2.0367    0.0000 N   0  0  0  0  0  0  0  0  0  0  0  0
   -0.6467    1.0010    0.0000 C   0  0  0  0  0  0  0  0  0  0  0  0
    0.8290    1.2700    0.0000 C   0  0  0  0  0  0  0  0  0  0  0  0
    1.7998    0.1265    0.0000 C   0  0  0  0  0  0  0  0  0  0  0  0
    3.2755    0.3956    0.0000 C   0  0  0  0  0  0  0  0  0  0  0  0
    4.2463   -0.7479    0.0000 C   0  0  0  0  0  0  0  0  0  0  0  0
    5.7420   -0.6346    0.0000 C   0  0  0  0  0  0  0  0  0  0  0  0
    6.3120   -2.0221    0.0000 C   0  0  0  0  0  0  0  0  0  0  0  0
    5.1685   -2.9929    0.0000 S   0  0  0  0  0  0  0  0  0  0  0  0
    3.8918   -2.2054    0.0000 C   0  0  0  0  0  0  0  0  0  0  0  0
    3.7803    1.8081    0.0000 C   0  0  0  0  0  0  0  0  0  0  0  0
    2.8095    2.9515    0.0000 C   0  0  0  0  0  0  0  0  0  0  0  0
    1.3338    2.6825    0.0000 C   0  0  0  0  0  0  0  0  0  0  0  0
    0.3630    3.8259    0.0000 F   0  0  0  0  0  0  0  0  0  0  0  0
   -1.2964   -0.3510    0.0000 N   0  0  0  0  0  0  0  0  0  0  0  0
   -2.7830   -0.1509    0.0000 C   0  0  0  0  0  0  0  0  0  0  0  0
  1  2  1  0
  2  3  2  0
  2  4  1  0
  4  5  2  0
  5  6  1  0
  6  7  2  0
  7  8  1  0
  8  9  1  0
  9 10  1  0
 10 11  1  0
 11 12  2  0
 12 13  1  0
 13 14  1  0
 14 15  1  0
 15 16  2  0
 16 17  1  0
 17 18  1  0
 13 19  2  0
 19 20  1  0
 20 21  2  0
 21 22  1  0
 10 23  2  0
 23 24  1  0
 24  4  1  0
 24  8  2  0
 21 11  1  0
 18 14  2  0
M  END
$$$$

     RDKit          2D

 26 29  0  0  0  0  0  0  0  0999 V2000
   -5.3122   -0.5673    0.0000 O   0  0  0  0  0  0  0  0  0  0  0  0
   -3.8297   -0.3384    0.0000 C   0  0  0  0  0  0  0  0  0  0  0  0
   -2.8903   -1.5078    0.0000 C   0  0  0  0  0  0  0  0  0  0  0  0
   -3.4334   -2.9061    0.0000 C   0  0  0  0  0  0  0  0  0  0  0  0
   -2.4939   -4.0755    0.0000 C   0  0  0  0  0  0  0  0  0  0  0  0
   -1.0115   -3.8467    0.0000 C   0  0  0  0  0  0  0  0  0  0  0  0
   -0.4685   -2.4484    0.0000 C   0  0  0  0  0  0  0  0  0  0  0  0
    1.0140   -2.2195    0.0000 C   0  0  0  0  0  0  0  0  0  0  0  0
    1.5570   -0.8213    0.0000 C   0  0  0  0  0  0  0  0  0  0  0  0
    0.6176    0.3481    0.0000 N   0  0  0  0  0  0  0  0  0  0  0  0
    1.1606    1.7464    0.0000 N   0  0  0  0  0  0  0  0  0  0  0  0
    2.6430    1.9752    0.0000 C   0  0  0  0  0  0  0  0  0  0  0  0
    3.1861    3.3735    0.0000 O   0  0  0  0  0  0  0  0  0  0  0  0
    3.5825    0.8058    0.0000 C   0  0  0  0  0  0  0  0  0  0  0  0
    3.0394   -0.5924    0.0000 C   0  0  0  0  0  0  0  0  0  0  0  0
    3.9788   -1.7618    0.0000 C   0  0  0  0  0  0  0  0  0  0  0  0
    5.4613   -1.5330    0.0000 C   0  0  0  0  0  0  0  0  0  0  0  0
    6.0043   -0.1347    0.0000 C   0  0  0  0  0  0  0  0  0  0  0  0
    5.0649    1.0347    0.0000 C   0  0  0  0  0  0  0  0  0  0  0  0
   -1.4079   -1.2790    0.0000 C   0  0  0  0  0  0  0  0  0  0  0  0
   -3.2867    1.0598    0.0000 N   0  0  0  0  0  0  0  0  0  0  0  0
   -1.8043    1.2887    0.0000 C   0  0  0  0  0  0  0  0  0  0  0  0
   -1.2612    2.6869    0.0000 C   0  0  0  0  0  0  0  0  0  0  0  0
   -2.2007    3.8563    0.0000 C   0  0  0  0  0  0  0  0  0  0  0  0
   -3.6831    3.6275    0.0000 N   0  0  0  0  0  0  0  0  0  0  0  0
   -4.2261    2.2292    0.0000 C   0  0  0  0  0  0  0  0  0  0  0  0
  1  2  2  0
  2  3  1  0
  3  4  2  0
  4  5  1  0
  5  6  2  0
  6  7  1  0
  7  8  1  0
  8  9  1  0
  9 10  2  0
 10 11  1  0
 11 12  1  0
 12 13  2  0
 12 14  1  0
 14 15  2  0
 15 16  1  0
 16 17  1  0
 17 18  1  0
 18 19  1  0
  7 20  2  0
  2 21  1  0
 21 22  1  0
 22 23  1  0
 23 24  1  0
 24 25  1  0
 25 26  1  0
 20  3  1  0
 26 21  1  0
 15  9  1  0
 19 14  1  0
M  END
$$$$

     RDKit          2D

 21 23  0  0  0  0  0  0  0  0999 V2000
   -4.1730    3.7680    0.0000 C   0  0  0  0  0  0  0  0  0  0  0  0
   -3.5166    2.4193    0.0000 N   0  0  0  0  0  0  0  0  0  0  0  0
   -4.3564    1.1764    0.0000 C   0  0  0  0  0  0  0  0  0  0  0  0
   -3.7000   -0.1723    0.0000 C   0  0  0  0  0  0  0  0  0  0  0  0
   -2.2037   -0.2782    0.0000 C   0  0  0  0  0  0  0  0  0  0  0  0
   -1.5473   -1.6269    0.0000 C   0  0  0  0  0  0  0  0  0  0  0  0
   -0.0510   -1.7328    0.0000 C   0  0  0  0  0  0  0  0  0  0  0  0
    0.7888   -0.4899    0.0000 C   0  0  0  0  0  0  0  0  0  0  0  0
    0.1324    0.8588    0.0000 N   0  0  0  0  0  0  0  0  0  0  0  0
    0.9722    2.1017    0.0000 N   0  0  0  0  0  0  0  0  0  0  0  0
    2.4684    1.9958    0.0000 C   0  0  0  0  0  0  0  0  0  0  0  0
    3.3083    3.2387    0.0000 O   0  0  0  0  0  0  0  0  0  0  0  0
    3.1249    0.6471    0.0000 C   0  0  0  0  0  0  0  0  0  0  0  0
    2.2851   -0.5958    0.0000 C   0  0  0  0  0  0  0  0  0  0  0  0
    2.9415   -1.9445    0.0000 C   0  0  0  0  0  0  0  0  0  0  0  0
    4.4378   -2.0504    0.0000 C   0  0  0  0  0  0  0  0  0  0  0  0
    5.2776   -0.8075    0.0000 C   0  0  0  0  0  0  0  0  0  0  0  0
    4.6212    0.5412    0.0000 C   0  0  0  0  0  0  0  0  0  0  0  0
   -2.3871   -2.8698    0.0000 C   0  0  0  0  0  0  0  0  0  0  0  0
   -3.8833   -2.7639    0.0000 C   0  0  0  0  0  0  0  0  0  0  0  0
   -4.5398   -1.4152    0.0000 N   0  0  0  0  0  0  0  0  0  0  0  0
  1  2  1  0
  2  3  1  0
  3  4  1  0
  4  5  2  0
  5  6  1  0
  6  7  1  0
  7  8  1  0
  8  9  2  0
  9 10  1  0
 10 11  1  0
 11 12  2  0
 11 13  1  0
 13 14  2  0
 14 15  1  0
 15 16  1  0
 16 17  1  0
 17 18  1  0
  6 19  2  0
 19 20  1  0
 20 21  2  0
 21  4  1  0
 14  8  1  0
 18 13  1  0
M  END
$$$$

     RDKit          2D

 31 34  0  0  0  0  0  0  0  0999 V2000
  -10.4570    0.3476    0.0000 C   0  0  0  0  0  0  0  0  0  0  0  0
   -9.0324    0.8172    0.0000 N   0  0  0  0  0  0  0  0  0  0  0  0
   -8.7268    2.2857    0.0000 C   0  0  0  0  0  0  0  0  0  0  0  0
   -7.9135   -0.1818    0.0000 C   0  0  0  0  0  0  0  0  0  0  0  0
   -6.4889    0.2878    0.0000 C   0  0  0  0  0  0  0  0  0  0  0  0
   -6.1832    1.7563    0.0000 O   0  0  0  0  0  0  0  0  0  0  0  0
   -5.3699   -0.7111    0.0000 N   0  0  0  0  0  0  0  0  0  0  0  0
   -3.9453   -0.2415    0.0000 C   0  0  0  0  0  0  0  0  0  0  0  0
   -3.6397    1.2270    0.0000 C   0  0  0  0  0  0  0  0  0  0  0  0
   -2.2151    1.6966    0.0000 C   0  0  0  0  0  0  0  0  0  0  0  0
   -1.0961    0.6976    0.0000 C   0  0  0  0  0  0  0  0  0  0  0  0
   -1.4017   -0.7709    0.0000 C   0  0  0  0  0  0  0  0  0  0  0  0
   -0.2827   -1.7698    0.0000 C   0  0  0  0  0  0  0  0  0  0  0  0
   -0.5883   -3.2384    0.0000 C   0  0  0  0  0  0  0  0  0  0  0  0
    0.5306   -4.2373    0.0000 C   0  0  0  0  0  0  0  0  0  0  0  0
    1.9552   -3.7677    0.0000 C   0  0  0  0  0  0  0  0  0  0  0  0
    2.2609   -2.2992    0.0000 C   0  0  0  0  0  0  0  0  0  0  0  0
    3.6855   -1.8296    0.0000 C   0  0  0  0  0  0  0  0  0  0  0  0
    3.9911   -0.3611    0.0000 C   0  0  0  0  0  0  0  0  0  0  0  0
    2.8721    0.6379    0.0000 N   0  0  0  0  0  0  0  0  0  0  0  0
    3.1777    2.1064    0.0000 N   0  0  0  0  0  0  0  0  0  0  0  0
    4.6023    2.5760    0.0000 C   0  0  0  0  0  0  0  0  0  0  0  0
    4.9079    4.0445    0.0000 O   0  0  0  0  0  0  0  0  0  0  0  0
    5.7213    1.5771    0.0000 C   0  0  0  0  0  0  0  0  0  0  0  0
    5.4157    0.1085    0.0000 C   0  0  0  0  0  0  0  0  0  0  0  0
    6.5347   -0.8904    0.0000 C   0  0  0  0  0  0  0  0  0  0  0  0
    7.9593   -0.4208    0.0000 C   0  0  0  0  0  0  0  0  0  0  0  0
    8.2649    1.0477    0.0000 C   0  0  0  0  0  0  0  0  0  0  0  0
    7.1459    2.0466    0.0000 C   0  0  0  0  0  0  0  0  0  0  0  0
    1.1419   -1.3003    0.0000 C   0  0  0  0  0  0  0  0  0  0  0  0
   -2.8263   -1.2405    0.0000 C   0  0  0  0  0  0  0  0  0  0  0  0
  1  2  1  0
  2  3  1  0
  2  4  1  0
  4  5  1  0
  5  6  2  0
  5  7  1  0
  7  8  1  0
  8  9  2  0
  9 10  1  0
 10 11  2  0
 11 12  1  0
 12 13  1  0
 13 14  2  0
 14 15  1  0
 15 16  2  0
 16 17  1  0
 17 18  1  0
 18 19  1  0
 19 20  2  0
 20 21  1  0
 21 22  1  0
 22 23  2  0
 22 24  1  0
 24 25  2  0
 25 26  1  0
 26 27  1  0
 27 28  1  0
 28 29  1  0
 17 30  2  0
 12 31  2  0
 31  8  1  0
 30 13  1  0
 25 19  1  0
 29 24  1  0
M  END
$$$$

     RDKit          2D

 23 25  0  0  0  0  0  0  0  0999 V2000
   -1.0778   -0.4032    0.0000 C   0  0  0  0  0  0  0  0  0  0  0  0
   -2.1260   -1.4761    0.0000 C   0  0  0  0  0  0  0  0  0  0  0  0
   -3.1743   -2.5490    0.0000 C   0  0  0  0  0  0  0  0  0  0  0  0
   -1.0531   -2.5244    0.0000 O   0  0  0  0  0  0  0  0  0  0  0  0
   -3.1990   -0.4279    0.0000 C   0  0  0  0  0  0  0  0  0  0  0  0
   -4.6432   -0.8329    0.0000 N   0  0  0  0  0  0  0  0  0  0  0  0
   -5.7161    0.2154    0.0000 C   0  0  0  0  0  0  0  0  0  0  0  0
   -5.3448    1.6687    0.0000 C   0  0  0  0  0  0  0  0  0  0  0  0
   -3.9005    2.0737    0.0000 C   0  0  0  0  0  0  0  0  0  0  0  0
   -2.8276    1.0254    0.0000 C   0  0  0  0  0  0  0  0  0  0  0  0
   -1.3833    1.4305    0.0000 C   0  0  0  0  0  0  0  0  0  0  0  0
   -0.3104    0.3822    0.0000 C   0  0  0  0  0  0  0  0  0  0  0  0
    1.1339    0.7873    0.0000 C   0  0  0  0  0  0  0  0  0  0  0  0
    1.5052    2.2406    0.0000 N   0  0  0  0  0  0  0  0  0  0  0  0
    2.9495    2.6456    0.0000 N   0  0  0  0  0  0  0  0  0  0  0  0
    4.0224    1.5973    0.0000 C   0  0  0  0  0  0  0  0  0  0  0  0
    5.4667    2.0024    0.0000 O   0  0  0  0  0  0  0  0  0  0  0  0
    3.6511    0.1440    0.0000 C   0  0  0  0  0  0  0  0  0  0  0  0
    2.2068   -0.2610    0.0000 C   0  0  0  0  0  0  0  0  0  0  0  0
    1.8354   -1.7143    0.0000 C   0  0  0  0  0  0  0  0  0  0  0  0
    2.9084   -2.7626    0.0000 C   0  0  0  0  0  0  0  0  0  0  0  0
    4.3526   -2.3575    0.0000 C   0  0  0  0  0  0  0  0  0  0  0  0
    4.7240   -0.9042    0.0000 C   0  0  0  0  0  0  0  0  0  0  0  0
  1  2  1  0
  2  3  1  0
  2  4  1  0
  2  5  1  0
  5  6  2  0
  6  7  1  0
  7  8  2  0
  8  9  1  0
  9 10  2  0
 10 11  1  0
 11 12  1  0
 12 13  1  0
 13 14  2  0
 14 15  1  0
 15 16  1  0
 16 17  2  0
 16 18  1  0
 18 19  2  0
 19 20  1  0
 20 21  1  0
 21 22  1  0
 22 23  1  0
 10  5  1  0
 19 13  1  0
 23 18  1  0
M  END
$$$$

     RDKit          2D

 24 27  0  0  0  0  0  0  0  0999 V2000
   -5.2547   -0.4887    0.0000 O   0  0  0  0  0  0  0  0  0  0  0  0
   -3.7783   -0.2237    0.0000 C   0  0  0  0  0  0  0  0  0  0  0  0
   -3.2697    1.1875    0.0000 N   0  0  0  0  0  0  0  0  0  0  0  0
   -4.2374    2.3335    0.0000 C   0  0  0  0  0  0  0  0  0  0  0  0
   -5.6485    2.8422    0.0000 C   0  0  0  0  0  0  0  0  0  0  0  0
   -4.5025    3.8099    0.0000 C   0  0  0  0  0  0  0  0  0  0  0  0
   -2.8106   -1.3697    0.0000 C   0  0  0  0  0  0  0  0  0  0  0  0
   -3.3192   -2.7809    0.0000 C   0  0  0  0  0  0  0  0  0  0  0  0
   -2.3515   -3.9269    0.0000 C   0  0  0  0  0  0  0  0  0  0  0  0
   -0.8751   -3.6619    0.0000 C   0  0  0  0  0  0  0  0  0  0  0  0
   -0.3664   -2.2507    0.0000 C   0  0  0  0  0  0  0  0  0  0  0  0
    1.1100   -1.9857    0.0000 C   0  0  0  0  0  0  0  0  0  0  0  0
    1.6186   -0.5745    0.0000 C   0  0  0  0  0  0  0  0  0  0  0  0
    0.6509    0.5715    0.0000 N   0  0  0  0  0  0  0  0  0  0  0  0
    1.1595    1.9827    0.0000 N   0  0  0  0  0  0  0  0  0  0  0  0
    2.6359    2.2477    0.0000 C   0  0  0  0  0  0  0  0  0  0  0  0
    3.1446    3.6588    0.0000 O   0  0  0  0  0  0  0  0  0  0  0  0
    3.6037    1.1017    0.0000 C   0  0  0  0  0  0  0  0  0  0  0  0
    3.0950   -0.3095    0.0000 C   0  0  0  0  0  0  0  0  0  0  0  0
    4.0628   -1.4555    0.0000 C   0  0  0  0  0  0  0  0  0  0  0  0
    5.5392   -1.1905    0.0000 C   0  0  0  0  0  0  0  0  0  0  0  0
    6.0478    0.2206    0.0000 C   0  0  0  0  0  0  0  0  0  0  0  0
    5.0801    1.3667    0.0000 C   0  0  0  0  0  0  0  0  0  0  0  0
   -1.3342   -1.1047    0.0000 C   0  0  0  0  0  0  0  0  0  0  0  0
  1  2  2  0
  2  3  1  0
  3  4  1  0
  4  5  1  0
  5  6  1  0
  2  7  1  0
  7  8  2  0
  8  9  1  0
  9 10  2  0
 10 11  1  0
 11 12  1  0
 12 13  1  0
 13 14  2  0
 14 15  1  0
 15 16  1  0
 16 17  2  0
 16 18  1  0
 18 19  2  0
 19 20  1  0
 20 21  1  0
 21 22  1  0
 22 23  1  0
 11 24  2  0
  6  4  1  0
 24  7  1  0
 19 13  1  0
 23 18  1  0
M  END
$$$$

     RDKit          2D

 30 33  0  0  0  0  0  0  0  0999 V2000
   -0.8471   -0.1801    0.0000 O   0  0  0  0  0  0  0  0  0  0  0  0
   -1.9617   -1.1839    0.0000 C   0  0  0  0  0  0  0  0  0  0  0  0
   -3.3884   -0.7204    0.0000 N   0  0  0  0  0  0  0  0  0  0  0  0
   -3.7003    0.7468    0.0000 C   0  0  0  0  0  0  0  0  0  0  0  0
   -5.1269    1.2102    0.0000 C   0  0  0  0  0  0  0  0  0  0  0  0
   -5.4389    2.6774    0.0000 C   0  0  0  0  0  0  0  0  0  0  0  0
   -6.8655    3.1408    0.0000 C   0  0  0  0  0  0  0  0  0  0  0  0
   -7.9802    2.1371    0.0000 C   0  0  0  0  0  0  0  0  0  0  0  0
   -7.6682    0.6699    0.0000 C   0  0  0  0  0  0  0  0  0  0  0  0
   -6.2416    0.2064    0.0000 C   0  0  0  0  0  0  0  0  0  0  0  0
   -1.6498   -2.6511    0.0000 C   0  0  0  0  0  0  0  0  0  0  0  0
   -2.7644   -3.6548    0.0000 O   0  0  0  0  0  0  0  0  0  0  0  0
   -0.2232   -3.1145    0.0000 C   0  0  0  0  0  0  0  0  0  0  0  0
    0.0888   -4.5817    0.0000 C   0  0  0  0  0  0  0  0  0  0  0  0
    1.5154   -5.0451    0.0000 C   0  0  0  0  0  0  0  0  0  0  0  0
    2.6301   -4.0414    0.0000 C   0  0  0  0  0  0  0  0  0  0  0  0
    2.3181   -2.5742    0.0000 C   0  0  0  0  0  0  0  0  0  0  0  0
    3.4328   -1.5704    0.0000 C   0  0  0  0  0  0  0  0  0  0  0  0
    3.1208   -0.1032    0.0000 C   0  0  0  0  0  0  0  0  0  0  0  0
    1.6942    0.3602    0.0000 N   0  0  0  0  0  0  0  0  0  0  0  0
    1.3822    1.8274    0.0000 N   0  0  0  0  0  0  0  0  0  0  0  0
    2.4969    2.8312    0.0000 C   0  0  0  0  0  0  0  0  0  0  0  0
    2.1849    4.2984    0.0000 O   0  0  0  0  0  0  0  0  0  0  0  0
    3.9235    2.3678    0.0000 C   0  0  0  0  0  0  0  0  0  0  0  0
    4.2354    0.9006    0.0000 C   0  0  0  0  0  0  0  0  0  0  0  0
    5.6621    0.4371    0.0000 C   0  0  0  0  0  0  0  0  0  0  0  0
    6.7767    1.4409    0.0000 C   0  0  0  0  0  0  0  0  0  0  0  0
    6.4647    2.9081    0.0000 C   0  0  0  0  0  0  0  0  0  0  0  0
    5.0381    3.3715    0.0000 C   0  0  0  0  0  0  0  0  0  0  0  0
    0.8915   -2.1107    0.0000 C   0  0  0  0  0  0  0  0  0  0  0  0
  1  2  2  0
  2  3  1  0
  3  4  1  0
  4  5  1  0
  5  6  2  0
  6  7  1  0
  7  8  2  0
  8  9  1  0
  9 10  2  0
  2 11  1  0
 11 12  2  0
 11 13  1  0
 13 14  2  0
 14 15  1  0
 15 16  2  0
 16 17  1  0
 17 18  1  0
 18 19  1  0
 19 20  2  0
 20 21  1  0
 21 22  1  0
 22 23  2  0
 22 24  1  0
 24 25  2  0
 25 26  1  0
 26 27  1  0
 27 28  1  0
 28 29  1  0
 17 30  2  0
 10  5  1  0
 30 13  1  0
 25 19  1  0
 29 24  1  0
M  END
$$$$

     RDKit          2D

 31 34  0  0  0  0  0  0  0  0999 V2000
   -9.5219    2.7335    0.0000 C   0  0  0  0  0  0  0  0  0  0  0  0
   -9.0376    1.3138    0.0000 O   0  0  0  0  0  0  0  0  0  0  0  0
   -7.5660    1.0234    0.0000 C   0  0  0  0  0  0  0  0  0  0  0  0
   -6.5787    2.1526    0.0000 C   0  0  0  0  0  0  0  0  0  0  0  0
   -5.1071    1.8622    0.0000 C   0  0  0  0  0  0  0  0  0  0  0  0
   -4.6228    0.4425    0.0000 C   0  0  0  0  0  0  0  0  0  0  0  0
   -3.1512    0.1521    0.0000 C   0  0  0  0  0  0  0  0  0  0  0  0
   -2.6669   -1.2676    0.0000 C   0  0  0  0  0  0  0  0  0  0  0  0
   -1.1953   -1.5580    0.0000 N   0  0  0  0  0  0  0  0  0  0  0  0
   -0.7110   -2.9777    0.0000 C   0  0  0  0  0  0  0  0  0  0  0  0
   -1.6983   -4.1070    0.0000 O   0  0  0  0  0  0  0  0  0  0  0  0
    0.7606   -3.2681    0.0000 C   0  0  0  0  0  0  0  0  0  0  0  0
    1.2449   -4.6878    0.0000 C   0  0  0  0  0  0  0  0  0  0  0  0
    2.7165   -4.9783    0.0000 C   0  0  0  0  0  0  0  0  0  0  0  0
    3.7039   -3.8490    0.0000 C   0  0  0  0  0  0  0  0  0  0  0  0
    3.2196   -2.4293    0.0000 C   0  0  0  0  0  0  0  0  0  0  0  0
    4.2069   -1.3001    0.0000 C   0  0  0  0  0  0  0  0  0  0  0  0
    3.7226    0.1196    0.0000 C   0  0  0  0  0  0  0  0  0  0  0  0
    2.2510    0.4100    0.0000 N   0  0  0  0  0  0  0  0  0  0  0  0
    1.7667    1.8297    0.0000 N   0  0  0  0  0  0  0  0  0  0  0  0
    2.7541    2.9589    0.0000 C   0  0  0  0  0  0  0  0  0  0  0  0
    2.2698    4.3786    0.0000 O   0  0  0  0  0  0  0  0  0  0  0  0
    4.2257    2.6685    0.0000 C   0  0  0  0  0  0  0  0  0  0  0  0
    4.7100    1.2488    0.0000 C   0  0  0  0  0  0  0  0  0  0  0  0
    6.1816    0.9584    0.0000 C   0  0  0  0  0  0  0  0  0  0  0  0
    7.1689    2.0876    0.0000 C   0  0  0  0  0  0  0  0  0  0  0  0
    6.6846    3.5073    0.0000 C   0  0  0  0  0  0  0  0  0  0  0  0
    5.2130    3.7977    0.0000 C   0  0  0  0  0  0  0  0  0  0  0  0
    1.7480   -2.1389    0.0000 C   0  0  0  0  0  0  0  0  0  0  0  0
   -5.6101   -0.6867    0.0000 C   0  0  0  0  0  0  0  0  0  0  0  0
   -7.0817   -0.3963    0.0000 C   0  0  0  0  0  0  0  0  0  0  0  0
  1  2  1  0
  2  3  1  0
  3  4  2  0
  4  5  1  0
  5  6  2  0
  6  7  1  0
  7  8  1  0
  8  9  1  0
  9 10  1  0
 10 11  2  0
 10 12  1  0
 12 13  2  0
 13 14  1  0
 14 15  2  0
 15 16  1  0
 16 17  1  0
 17 18  1  0
 18 19  2  0
 19 20  1  0
 20 21  1  0
 21 22  2  0
 21 23  1  0
 23 24  2  0
 24 25  1  0
 25 26  1  0
 26 27  1  0
 27 28  1  0
 16 29  2  0
  6 30  1  0
 30 31  2  0
 31  3  1  0
 29 12  1  0
 24 18  1  0
 28 23  1  0
M  END
$$$$

     RDKit          2D

 24 27  0  0  0  0  0  0  0  0999 V2000
   -6.2639   -2.6795    0.0000 N   0  0  0  0  0  0  0  0  0  0  0  0
   -4.9058   -2.0427    0.0000 C   0  0  0  0  0  0  0  0  0  0  0  0
   -3.6753   -2.9005    0.0000 O   0  0  0  0  0  0  0  0  0  0  0  0
   -4.7783   -0.5482    0.0000 C   0  0  0  0  0  0  0  0  0  0  0  0
   -6.0088    0.3096    0.0000 C   0  0  0  0  0  0  0  0  0  0  0  0
   -5.8813    1.8042    0.0000 C   0  0  0  0  0  0  0  0  0  0  0  0
   -4.5232    2.4410    0.0000 C   0  0  0  0  0  0  0  0  0  0  0  0
   -3.2926    1.5832    0.0000 C   0  0  0  0  0  0  0  0  0  0  0  0
   -1.8318    1.9238    0.0000 N   0  0  0  0  0  0  0  0  0  0  0  0
   -1.0565    0.6397    0.0000 C   0  0  0  0  0  0  0  0  0  0  0  0
    0.4381    0.5121    0.0000 C   0  0  0  0  0  0  0  0  0  0  0  0
    1.0749   -0.8460    0.0000 C   0  0  0  0  0  0  0  0  0  0  0  0
    2.5695   -0.9736    0.0000 C   0  0  0  0  0  0  0  0  0  0  0  0
    3.4272    0.2570    0.0000 C   0  0  0  0  0  0  0  0  0  0  0  0
    4.9218    0.1294    0.0000 C   0  0  0  0  0  0  0  0  0  0  0  0
    5.9035    1.2636    0.0000 C   0  0  0  0  0  0  0  0  0  0  0  0
    7.2855    0.6804    0.0000 C   0  0  0  0  0  0  0  0  0  0  0  0
    7.1579   -0.8141    0.0000 C   0  0  0  0  0  0  0  0  0  0  0  0
    5.6971   -1.1547    0.0000 C   0  0  0  0  0  0  0  0  0  0  0  0
    5.1139   -2.5367    0.0000 O   0  0  0  0  0  0  0  0  0  0  0  0
    2.7904    1.6151    0.0000 C   0  0  0  0  0  0  0  0  0  0  0  0
    1.2958    1.7427    0.0000 C   0  0  0  0  0  0  0  0  0  0  0  0
   -2.0382   -0.4945    0.0000 N   0  0  0  0  0  0  0  0  0  0  0  0
   -3.4202    0.0887    0.0000 C   0  0  0  0  0  0  0  0  0  0  0  0
  1  2  1  0
  2  3  2  0
  2  4  1  0
  4  5  2  0
  5  6  1  0
  6  7  2  0
  7  8  1  0
  8  9  1  0
  9 10  1  0
 10 11  1  0
 11 12  2  0
 12 13  1  0
 13 14  2  0
 14 15  1  0
 15 16  1  0
 16 17  1  0
 17 18  1  0
 18 19  1  0
 19 20  2  0
 14 21  1  0
 21 22  2  0
 10 23  2  0
 23 24  1  0
 24  4  1  0
 24  8  2  0
 22 11  1  0
 19 15  1  0
M  END
$$$$

     RDKit          2D

 25 27  0  0  0  0  0  0  0  0999 V2000
   -7.3998    0.5956    0.0000 C   0  0  0  0  0  0  0  0  0  0  0  0
   -6.6527   -0.7051    0.0000 C   0  0  0  0  0  0  0  0  0  0  0  0
   -5.9056   -2.0058    0.0000 C   0  0  0  0  0  0  0  0  0  0  0  0
   -7.9534   -1.4522    0.0000 C   0  0  0  0  0  0  0  0  0  0  0  0
   -5.3520    0.0420    0.0000 C   0  0  0  0  0  0  0  0  0  0  0  0
   -5.3486    1.5420    0.0000 O   0  0  0  0  0  0  0  0  0  0  0  0
   -4.0546   -0.7109    0.0000 N   0  0  0  0  0  0  0  0  0  0  0  0
   -2.7539    0.0362    0.0000 C   0  0  0  0  0  0  0  0  0  0  0  0
   -2.7505    1.5362    0.0000 C   0  0  0  0  0  0  0  0  0  0  0  0
   -1.4498    2.2833    0.0000 C   0  0  0  0  0  0  0  0  0  0  0  0
   -0.1525    1.5303    0.0000 C   0  0  0  0  0  0  0  0  0  0  0  0
   -0.1558    0.0303    0.0000 C   0  0  0  0  0  0  0  0  0  0  0  0
    1.1415   -0.7226    0.0000 C   0  0  0  0  0  0  0  0  0  0  0  0
    2.4423    0.0245    0.0000 C   0  0  0  0  0  0  0  0  0  0  0  0
    2.4456    1.5245    0.0000 N   0  0  0  0  0  0  0  0  0  0  0  0
    3.7463    2.2716    0.0000 N   0  0  0  0  0  0  0  0  0  0  0  0
    5.0437    1.5187    0.0000 C   0  0  0  0  0  0  0  0  0  0  0  0
    6.3444    2.2658    0.0000 O   0  0  0  0  0  0  0  0  0  0  0  0
    5.0403    0.0187    0.0000 C   0  0  0  0  0  0  0  0  0  0  0  0
    3.7396   -0.7284    0.0000 C   0  0  0  0  0  0  0  0  0  0  0  0
    3.7362   -2.2284    0.0000 C   0  0  0  0  0  0  0  0  0  0  0  0
    5.0336   -2.9813    0.0000 C   0  0  0  0  0  0  0  0  0  0  0  0
    6.3343   -2.2342    0.0000 C   0  0  0  0  0  0  0  0  0  0  0  0
    6.3377   -0.7342    0.0000 C   0  0  0  0  0  0  0  0  0  0  0  0
   -1.4565   -0.7167    0.0000 C   0  0  0  0  0  0  0  0  0  0  0  0
  1  2  1  0
  2  3  1  0
  2  4  1  0
  2  5  1  0
  5  6  2  0
  5  7  1  0
  7  8  1  0
  8  9  2  0
  9 10  1  0
 10 11  2  0
 11 12  1  0
 12 13  1  0
 13 14  1  0
 14 15  2  0
 15 16  1  0
 16 17  1  0
 17 18  2  0
 17 19  1  0
 19 20  2  0
 20 21  1  0
 21 22  1  0
 22 23  1  0
 23 24  1  0
 12 25  2  0
 25  8  1  0
 20 14  1  0
 24 19  1  0
M  END
$$$$

     RDKit          2D

 31 34  0  0  0  0  0  0  0  0999 V2000
   -0.5975   -5.0690    0.0000 O   0  0  0  0  0  0  0  0  0  0  0  0
    0.0223   -3.7030    0.0000 C   0  0  0  0  0  0  0  0  0  0  0  0
   -0.8507   -2.4833    0.0000 N   0  0  0  0  0  0  0  0  0  0  0  0
   -2.3436   -2.6295    0.0000 C   0  0  0  0  0  0  0  0  0  0  0  0
   -3.2166   -1.4097    0.0000 C   0  0  0  0  0  0  0  0  0  0  0  0
   -4.7095   -1.5559    0.0000 O   0  0  0  0  0  0  0  0  0  0  0  0
   -5.5825   -0.3361    0.0000 C   0  0  0  0  0  0  0  0  0  0  0  0
   -4.9627    1.0298    0.0000 C   0  0  0  0  0  0  0  0  0  0  0  0
   -5.8357    2.2496    0.0000 C   0  0  0  0  0  0  0  0  0  0  0  0
   -7.3286    2.1034    0.0000 C   0  0  0  0  0  0  0  0  0  0  0  0
   -8.2016    3.3231    0.0000 F   0  0  0  0  0  0  0  0  0  0  0  0
   -7.9484    0.7374    0.0000 C   0  0  0  0  0  0  0  0  0  0  0  0
   -7.0754   -0.4823    0.0000 C   0  0  0  0  0  0  0  0  0  0  0  0
    1.5151   -3.5569    0.0000 C   0  0  0  0  0  0  0  0  0  0  0  0
    2.3882   -4.7766    0.0000 C   0  0  0  0  0  0  0  0  0  0  0  0
    3.8810   -4.6304    0.0000 C   0  0  0  0  0  0  0  0  0  0  0  0
    4.5009   -3.2645    0.0000 C   0  0  0  0  0  0  0  0  0  0  0  0
    3.6278   -2.0447    0.0000 C   0  0  0  0  0  0  0  0  0  0  0  0
    4.2477   -0.6788    0.0000 C   0  0  0  0  0  0  0  0  0  0  0  0
    3.3746    0.5410    0.0000 C   0  0  0  0  0  0  0  0  0  0  0  0
    1.8818    0.3948    0.0000 N   0  0  0  0  0  0  0  0  0  0  0  0
    1.0087    1.6146    0.0000 N   0  0  0  0  0  0  0  0  0  0  0  0
    1.6286    2.9805    0.0000 C   0  0  0  0  0  0  0  0  0  0  0  0
    0.7555    4.2003    0.0000 O   0  0  0  0  0  0  0  0  0  0  0  0
    3.1214    3.1267    0.0000 C   0  0  0  0  0  0  0  0  0  0  0  0
    3.9945    1.9069    0.0000 C   0  0  0  0  0  0  0  0  0  0  0  0
    5.4873    2.0531    0.0000 C   0  0  0  0  0  0  0  0  0  0  0  0
    6.1071    3.4191    0.0000 C   0  0  0  0  0  0  0  0  0  0  0  0
    5.2341    4.6388    0.0000 C   0  0  0  0  0  0  0  0  0  0  0  0
    3.7413    4.4926    0.0000 C   0  0  0  0  0  0  0  0  0  0  0  0
    2.1350   -2.1909    0.0000 C   0  0  0  0  0  0  0  0  0  0  0  0
  1  2  2  0
  2  3  1  0
  3  4  1  0
  4  5  1  0
  5  6  1  0
  6  7  1  0
  7  8  2  0
  8  9  1  0
  9 10  2  0
 10 11  1  0
 10 12  1  0
 12 13  2  0
  2 14  1  0
 14 15  2  0
 15 16  1  0
 16 17  2  0
 17 18  1  0
 18 19  1  0
 19 20  1  0
 20 21  2  0
 21 22  1  0
 22 23  1  0
 23 24  2  0
 23 25  1  0
 25 26  2  0
 26 27  1  0
 27 28  1  0
 28 29  1  0
 29 30  1  0
 18 31  2  0
 13  7  1  0
 31 14  1  0
 26 20  1  0
 30 25  1  0
M  END
$$$$

     RDKit          2D

 28 31  0  0  0  0  0  0  0  0999 V2000
   -7.5651    2.9475    0.0000 N   0  0  0  0  0  0  0  0  0  0  0  0
   -6.2906    2.1566    0.0000 C   0  0  0  0  0  0  0  0  0  0  0  0
   -4.9683    2.8649    0.0000 C   0  0  0  0  0  0  0  0  0  0  0  0
   -3.6938    2.0739    0.0000 C   0  0  0  0  0  0  0  0  0  0  0  0
   -3.7415    0.5747    0.0000 C   0  0  0  0  0  0  0  0  0  0  0  0
   -2.4670   -0.2163    0.0000 N   0  0  0  0  0  0  0  0  0  0  0  0
   -2.5147   -1.7155    0.0000 C   0  0  0  0  0  0  0  0  0  0  0  0
   -3.8370   -2.4238    0.0000 O   0  0  0  0  0  0  0  0  0  0  0  0
   -1.2402   -2.5065    0.0000 C   0  0  0  0  0  0  0  0  0  0  0  0
   -1.2879   -4.0057    0.0000 C   0  0  0  0  0  0  0  0  0  0  0  0
   -0.0134   -4.7966    0.0000 C   0  0  0  0  0  0  0  0  0  0  0  0
    1.3088   -4.0883    0.0000 C   0  0  0  0  0  0  0  0  0  0  0  0
    1.3565   -2.5891    0.0000 C   0  0  0  0  0  0  0  0  0  0  0  0
    2.6788   -1.8808    0.0000 C   0  0  0  0  0  0  0  0  0  0  0  0
    2.7265   -0.3816    0.0000 C   0  0  0  0  0  0  0  0  0  0  0  0
    1.4520    0.4094    0.0000 N   0  0  0  0  0  0  0  0  0  0  0  0
    1.4997    1.9086    0.0000 N   0  0  0  0  0  0  0  0  0  0  0  0
    2.8219    2.6169    0.0000 C   0  0  0  0  0  0  0  0  0  0  0  0
    2.8697    4.1162    0.0000 O   0  0  0  0  0  0  0  0  0  0  0  0
    4.0965    1.8260    0.0000 C   0  0  0  0  0  0  0  0  0  0  0  0
    4.0487    0.3267    0.0000 C   0  0  0  0  0  0  0  0  0  0  0  0
    5.3233   -0.4642    0.0000 C   0  0  0  0  0  0  0  0  0  0  0  0
    6.6455    0.2441    0.0000 C   0  0  0  0  0  0  0  0  0  0  0  0
    6.6932    1.7433    0.0000 C   0  0  0  0  0  0  0  0  0  0  0  0
    5.4187    2.5343    0.0000 C   0  0  0  0  0  0  0  0  0  0  0  0
    0.0820   -1.7982    0.0000 C   0  0  0  0  0  0  0  0  0  0  0  0
   -5.0638   -0.1336    0.0000 C   0  0  0  0  0  0  0  0  0  0  0  0
   -6.3383    0.6573    0.0000 C   0  0  0  0  0  0  0  0  0  0  0  0
  1  2  1  0
  2  3  2  0
  3  4  1  0
  4  5  2  0
  5  6  1  0
  6  7  1  0
  7  8  2  0
  7  9  1  0
  9 10  2  0
 10 11  1  0
 11 12  2  0
 12 13  1  0
 13 14  1  0
 14 15  1  0
 15 16  2  0
 16 17  1  0
 17 18  1  0
 18 19  2  0
 18 20  1  0
 20 21  2  0
 21 22  1  0
 22 23  1  0
 23 24  1  0
 24 25  1  0
 13 26  2  0
  5 27  1  0
 27 28  2  0
 28  2  1  0
 26  9  1  0
 21 15  1  0
 25 20  1  0
M  END
$$$$

     RDKit          2D

 23 25  0  0  0  0  0  0  0  0999 V2000
   -7.0293    2.1214    0.0000 C   0  0  0  0  0  0  0  0  0  0  0  0
   -5.5776    1.7435    0.0000 C   0  0  0  0  0  0  0  0  0  0  0  0
   -5.1790    0.2975    0.0000 S   0  0  0  0  0  0  0  0  0  0  0  0
   -6.2320   -0.7708    0.0000 O   0  0  0  0  0  0  0  0  0  0  0  0
   -3.7274   -0.0804    0.0000 C   0  0  0  0  0  0  0  0  0  0  0  0
   -2.6744    0.9879    0.0000 C   0  0  0  0  0  0  0  0  0  0  0  0
   -1.2227    0.6101    0.0000 C   0  0  0  0  0  0  0  0  0  0  0  0
   -0.8241   -0.8360    0.0000 C   0  0  0  0  0  0  0  0  0  0  0  0
    0.6275   -1.2138    0.0000 C   0  0  0  0  0  0  0  0  0  0  0  0
    1.6806   -0.1456    0.0000 C   0  0  0  0  0  0  0  0  0  0  0  0
    1.2819    1.3005    0.0000 N   0  0  0  0  0  0  0  0  0  0  0  0
    2.3350    2.3687    0.0000 N   0  0  0  0  0  0  0  0  0  0  0  0
    3.7866    1.9909    0.0000 C   0  0  0  0  0  0  0  0  0  0  0  0
    4.8396    3.0591    0.0000 O   0  0  0  0  0  0  0  0  0  0  0  0
    4.1852    0.5448    0.0000 C   0  0  0  0  0  0  0  0  0  0  0  0
    3.1322   -0.5234    0.0000 C   0  0  0  0  0  0  0  0  0  0  0  0
    3.5308   -1.9695    0.0000 C   0  0  0  0  0  0  0  0  0  0  0  0
    4.9824   -2.3473    0.0000 C   0  0  0  0  0  0  0  0  0  0  0  0
    6.0355   -1.2791    0.0000 C   0  0  0  0  0  0  0  0  0  0  0  0
    5.6369    0.1670    0.0000 C   0  0  0  0  0  0  0  0  0  0  0  0
   -1.8771   -1.9043    0.0000 C   0  0  0  0  0  0  0  0  0  0  0  0
   -3.3288   -1.5264    0.0000 C   0  0  0  0  0  0  0  0  0  0  0  0
   -4.3818   -2.5947    0.0000 F   0  0  0  0  0  0  0  0  0  0  0  0
  1  2  1  0
  2  3  1  0
  3  4  2  0
  3  5  1  0
  5  6  2  0
  6  7  1  0
  7  8  2  0
  8  9  1  0
  9 10  1  0
 10 11  2  0
 11 12  1  0
 12 13  1  0
 13 14  2  0
 13 15  1  0
 15 16  2  0
 16 17  1  0
 17 18  1  0
 18 19  1  0
 19 20  1  0
  8 21  1  0
 21 22  2  0
 22 23  1  0
 22  5  1  0
 16 10  1  0
 20 15  1  0
M  END
$$$$

     RDKit          2D

 30 33  0  0  0  0  0  0  0  0999 V2000
   -2.3006   -2.6303    0.0000 O   0  0  0  0  0  0  0  0  0  0  0  0
   -2.3972   -1.1335    0.0000 C   0  0  0  0  0  0  0  0  0  0  0  0
   -3.7419   -0.4687    0.0000 N   0  0  0  0  0  0  0  0  0  0  0  0
   -4.9899   -1.3008    0.0000 C   0  0  0  0  0  0  0  0  0  0  0  0
   -6.3346   -0.6361    0.0000 C   0  0  0  0  0  0  0  0  0  0  0  0
   -7.5169   -1.5592    0.0000 C   0  0  0  0  0  0  0  0  0  0  0  0
   -8.9758   -1.2103    0.0000 C   0  0  0  0  0  0  0  0  0  0  0  0
   -9.6126    0.1478    0.0000 C   0  0  0  0  0  0  0  0  0  0  0  0
   -8.9479    1.4925    0.0000 N   0  0  0  0  0  0  0  0  0  0  0  0
   -7.4821    1.8111    0.0000 C   0  0  0  0  0  0  0  0  0  0  0  0
   -6.3191    0.8638    0.0000 C   0  0  0  0  0  0  0  0  0  0  0  0
   -1.1492   -0.3013    0.0000 C   0  0  0  0  0  0  0  0  0  0  0  0
    0.1954   -0.9661    0.0000 C   0  0  0  0  0  0  0  0  0  0  0  0
    1.4435   -0.1340    0.0000 C   0  0  0  0  0  0  0  0  0  0  0  0
    2.7881   -0.7987    0.0000 C   0  0  0  0  0  0  0  0  0  0  0  0
    4.0361    0.0334    0.0000 C   0  0  0  0  0  0  0  0  0  0  0  0
    3.9395    1.5303    0.0000 N   0  0  0  0  0  0  0  0  0  0  0  0
    5.1875    2.3624    0.0000 N   0  0  0  0  0  0  0  0  0  0  0  0
    6.5322    1.6977    0.0000 C   0  0  0  0  0  0  0  0  0  0  0  0
    7.7802    2.5298    0.0000 O   0  0  0  0  0  0  0  0  0  0  0  0
    6.6288    0.2008    0.0000 C   0  0  0  0  0  0  0  0  0  0  0  0
    5.3808   -0.6313    0.0000 C   0  0  0  0  0  0  0  0  0  0  0  0
    5.4774   -2.1282    0.0000 N   0  0  0  0  0  0  0  0  0  0  0  0
    6.8221   -2.7930    0.0000 C   0  0  0  0  0  0  0  0  0  0  0  0
    8.0701   -1.9608    0.0000 C   0  0  0  0  0  0  0  0  0  0  0  0
    7.9735   -0.4640    0.0000 C   0  0  0  0  0  0  0  0  0  0  0  0
    1.3468    1.3629    0.0000 C   0  0  0  0  0  0  0  0  0  0  0  0
    0.0022    2.0277    0.0000 C   0  0  0  0  0  0  0  0  0  0  0  0
   -1.2459    1.1956    0.0000 C   0  0  0  0  0  0  0  0  0  0  0  0
   -2.5905    1.8603    0.0000 F   0  0  0  0  0  0  0  0  0  0  0  0
  1  2  2  0
  2  3  1  0
  3  4  1  0
  4  5  1  0
  5  6  1  0
  6  7  1  0
  7  8  1  0
  8  9  1  0
  9 10  1  0
 10 11  1  0
  2 12  1  0
 12 13  2  0
 13 14  1  0
 14 15  1  0
 15 16  1  0
 16 17  2  0
 17 18  1  0
 18 19  1  0
 19 20  2  0
 19 21  1  0
 21 22  2  0
 22 23  1  0
 23 24  1  0
 24 25  1  0
 25 26  1  0
 14 27  2  0
 27 28  1  0
 28 29  2  0
 29 30  1  0
 11  5  1  0
 29 12  1  0
 22 16  1  0
 26 21  1  0
M  END
$$$$

     RDKit          2D

 22 24  0  0  0  0  0  0  0  0999 V2000
   -2.9766    2.8071    0.0000 N   0  0  0  0  0  0  0  0  0  0  0  0
   -3.9014    1.6261    0.0000 C   0  0  0  0  0  0  0  0  0  0  0  0
   -5.3866    1.8365    0.0000 O   0  0  0  0  0  0  0  0  0  0  0  0
   -3.3410    0.2347    0.0000 C   0  0  0  0  0  0  0  0  0  0  0  0
   -1.8558    0.0243    0.0000 C   0  0  0  0  0  0  0  0  0  0  0  0
   -1.2954   -1.3670    0.0000 C   0  0  0  0  0  0  0  0  0  0  0  0
    0.1897   -1.5774    0.0000 C   0  0  0  0  0  0  0  0  0  0  0  0
    1.1145   -0.3964    0.0000 C   0  0  0  0  0  0  0  0  0  0  0  0
    0.5541    0.9950    0.0000 N   0  0  0  0  0  0  0  0  0  0  0  0
    1.4789    2.1760    0.0000 N   0  0  0  0  0  0  0  0  0  0  0  0
    2.9641    1.9656    0.0000 C   0  0  0  0  0  0  0  0  0  0  0  0
    3.8889    3.1466    0.0000 O   0  0  0  0  0  0  0  0  0  0  0  0
    3.5245    0.5742    0.0000 C   0  0  0  0  0  0  0  0  0  0  0  0
    2.5997   -0.6068    0.0000 C   0  0  0  0  0  0  0  0  0  0  0  0
    3.1601   -1.9982    0.0000 C   0  0  0  0  0  0  0  0  0  0  0  0
    4.6452   -2.2086    0.0000 C   0  0  0  0  0  0  0  0  0  0  0  0
    5.5700   -1.0276    0.0000 C   0  0  0  0  0  0  0  0  0  0  0  0
    5.0096    0.3638    0.0000 C   0  0  0  0  0  0  0  0  0  0  0  0
   -2.2202   -2.5481    0.0000 C   0  0  0  0  0  0  0  0  0  0  0  0
   -3.7054   -2.3377    0.0000 C   0  0  0  0  0  0  0  0  0  0  0  0
   -4.2658   -0.9463    0.0000 C   0  0  0  0  0  0  0  0  0  0  0  0
   -5.7510   -0.7359    0.0000 F   0  0  0  0  0  0  0  0  0  0  0  0
  1  2  1  0
  2  3  2  0
  2  4  1  0
  4  5  2  0
  5  6  1  0
  6  7  1  0
  7  8  1  0
  8  9  2  0
  9 10  1  0
 10 11  1  0
 11 12  2  0
 11 13  1  0
 13 14  2  0
 14 15  1  0
 15 16  1  0
 16 17  1  0
 17 18  1  0
  6 19  2  0
 19 20  1  0
 20 21  2  0
 21 22  1  0
 21  4  1  0
 14  8  1  0
 18 13  1  0
M  END
$$$$

     RDKit          2D

 31 34  0  0  0  0  0  0  0  0999 V2000
   -7.2313    3.0403    0.0000 N   0  0  0  0  0  0  0  0  0  0  0  0
   -7.6358    1.5959    0.0000 C   0  0  0  0  0  0  0  0  0  0  0  0
   -9.0889    1.2240    0.0000 O   0  0  0  0  0  0  0  0  0  0  0  0
   -6.5871    0.5234    0.0000 N   0  0  0  0  0  0  0  0  0  0  0  0
   -7.0984   -0.8868    0.0000 C   0  0  0  0  0  0  0  0  0  0  0  0
   -6.3146   -2.1658    0.0000 C   0  0  0  0  0  0  0  0  0  0  0  0
   -4.8260   -2.3504    0.0000 C   0  0  0  0  0  0  0  0  0  0  0  0
   -3.7535   -1.3017    0.0000 N   0  0  0  0  0  0  0  0  0  0  0  0
   -2.3434   -1.8130    0.0000 C   0  0  0  0  0  0  0  0  0  0  0  0
   -2.0811   -3.2899    0.0000 O   0  0  0  0  0  0  0  0  0  0  0  0
   -1.1955   -0.8474    0.0000 C   0  0  0  0  0  0  0  0  0  0  0  0
    0.2147   -1.3587    0.0000 C   0  0  0  0  0  0  0  0  0  0  0  0
    1.3626   -0.3931    0.0000 C   0  0  0  0  0  0  0  0  0  0  0  0
    2.7727   -0.9044    0.0000 C   0  0  0  0  0  0  0  0  0  0  0  0
    3.9206    0.0612    0.0000 C   0  0  0  0  0  0  0  0  0  0  0  0
    3.6583    1.5381    0.0000 N   0  0  0  0  0  0  0  0  0  0  0  0
    4.8062    2.5037    0.0000 N   0  0  0  0  0  0  0  0  0  0  0  0
    6.2164    1.9924    0.0000 C   0  0  0  0  0  0  0  0  0  0  0  0
    7.3642    2.9580    0.0000 O   0  0  0  0  0  0  0  0  0  0  0  0
    6.4787    0.5155    0.0000 C   0  0  0  0  0  0  0  0  0  0  0  0
    5.3308   -0.4501    0.0000 C   0  0  0  0  0  0  0  0  0  0  0  0
    5.5931   -1.9270    0.0000 N   0  0  0  0  0  0  0  0  0  0  0  0
    7.0033   -2.4383    0.0000 C   0  0  0  0  0  0  0  0  0  0  0  0
    8.1511   -1.4726    0.0000 C   0  0  0  0  0  0  0  0  0  0  0  0
    7.8888    0.0042    0.0000 C   0  0  0  0  0  0  0  0  0  0  0  0
    1.1003    1.0838    0.0000 C   0  0  0  0  0  0  0  0  0  0  0  0
   -0.3099    1.5951    0.0000 C   0  0  0  0  0  0  0  0  0  0  0  0
   -1.4578    0.6295    0.0000 C   0  0  0  0  0  0  0  0  0  0  0  0
   -2.8680    1.1407    0.0000 F   0  0  0  0  0  0  0  0  0  0  0  0
   -3.9047    0.1906    0.0000 C   0  0  0  0  0  0  0  0  0  0  0  0
   -5.1658    1.0029    0.0000 C   0  0  0  0  0  0  0  0  0  0  0  0
  1  2  1  0
  2  3  2  0
  2  4  1  0
  4  5  1  0
  5  6  1  0
  6  7  1  0
  7  8  1  0
  8  9  1  0
  9 10  2  0
  9 11  1  0
 11 12  2  0
 12 13  1  0
 13 14  1  0
 14 15  1  0
 15 16  2  0
 16 17  1  0
 17 18  1  0
 18 19  2  0
 18 20  1  0
 20 21  2  0
 21 22  1  0
 22 23  1  0
 23 24  1  0
 24 25  1  0
 13 26  2  0
 26 27  1  0
 27 28  2  0
 28 29  1  0
  8 30  1  0
 30 31  1  0
 31  4  1  0
 28 11  1  0
 21 15  1  0
 25 20  1  0
M  END
$$$$

     RDKit          2D

 33 36  0  0  0  0  0  0  0  0999 V2000
   -9.4793   -2.1467    0.0000 C   0  0  0  0  0  0  0  0  0  0  0  0
   -8.2602   -1.2727    0.0000 C   0  0  0  0  0  0  0  0  0  0  0  0
   -8.4077    0.2201    0.0000 C   0  0  0  0  0  0  0  0  0  0  0  0
   -9.7742    0.8388    0.0000 C   0  0  0  0  0  0  0  0  0  0  0  0
   -7.1887    1.0941    0.0000 C   0  0  0  0  0  0  0  0  0  0  0  0
   -7.3361    2.5869    0.0000 C   0  0  0  0  0  0  0  0  0  0  0  0
   -5.8222    0.4755    0.0000 N   0  0  0  0  0  0  0  0  0  0  0  0
   -4.6032    1.3495    0.0000 C   0  0  0  0  0  0  0  0  0  0  0  0
   -3.2367    0.7308    0.0000 C   0  0  0  0  0  0  0  0  0  0  0  0
   -3.0893   -0.7619    0.0000 N   0  0  0  0  0  0  0  0  0  0  0  0
   -1.7228   -1.3806    0.0000 C   0  0  0  0  0  0  0  0  0  0  0  0
   -1.5753   -2.8733    0.0000 O   0  0  0  0  0  0  0  0  0  0  0  0
   -0.5038   -0.5065    0.0000 C   0  0  0  0  0  0  0  0  0  0  0  0
    0.8627   -1.1252    0.0000 C   0  0  0  0  0  0  0  0  0  0  0  0
    2.0817   -0.2511    0.0000 C   0  0  0  0  0  0  0  0  0  0  0  0
    3.4482   -0.8698    0.0000 C   0  0  0  0  0  0  0  0  0  0  0  0
    4.6672    0.0042    0.0000 C   0  0  0  0  0  0  0  0  0  0  0  0
    4.5198    1.4970    0.0000 N   0  0  0  0  0  0  0  0  0  0  0  0
    5.7388    2.3710    0.0000 N   0  0  0  0  0  0  0  0  0  0  0  0
    7.1053    1.7524    0.0000 C   0  0  0  0  0  0  0  0  0  0  0  0
    8.3243    2.6264    0.0000 O   0  0  0  0  0  0  0  0  0  0  0  0
    7.2527    0.2596    0.0000 C   0  0  0  0  0  0  0  0  0  0  0  0
    6.0337   -0.6144    0.0000 C   0  0  0  0  0  0  0  0  0  0  0  0
    6.1811   -2.1072    0.0000 N   0  0  0  0  0  0  0  0  0  0  0  0
    7.5476   -2.7258    0.0000 C   0  0  0  0  0  0  0  0  0  0  0  0
    8.7666   -1.8518    0.0000 C   0  0  0  0  0  0  0  0  0  0  0  0
    8.6192   -0.3590    0.0000 C   0  0  0  0  0  0  0  0  0  0  0  0
    1.9343    1.2416    0.0000 C   0  0  0  0  0  0  0  0  0  0  0  0
    0.5678    1.8603    0.0000 C   0  0  0  0  0  0  0  0  0  0  0  0
   -0.6512    0.9862    0.0000 C   0  0  0  0  0  0  0  0  0  0  0  0
   -2.0177    1.6049    0.0000 F   0  0  0  0  0  0  0  0  0  0  0  0
   -4.3083   -1.6360    0.0000 C   0  0  0  0  0  0  0  0  0  0  0  0
   -5.6747   -1.0173    0.0000 C   0  0  0  0  0  0  0  0  0  0  0  0
  1  2  1  0
  2  3  1  0
  3  4  1  0
  3  5  1  0
  5  6  1  0
  5  7  1  0
  7  8  1  0
  8  9  1  0
  9 10  1  0
 10 11  1  0
 11 12  2  0
 11 13  1  0
 13 14  2  0
 14 15  1  0
 15 16  1  0
 16 17  1  0
 17 18  2  0
 18 19  1  0
 19 20  1  0
 20 21  2  0
 20 22  1  0
 22 23  2  0
 23 24  1  0
 24 25  1  0
 25 26  1  0
 26 27  1  0
 15 28  2  0
 28 29  1  0
 29 30  2  0
 30 31  1  0
 10 32  1  0
 32 33  1  0
 33  7  1  0
 30 13  1  0
 23 17  1  0
 27 22  1  0
M  END
$$$$

     RDKit          2D

 35 39  0  0  0  0  0  0  0  0999 V2000
   -0.8195   -3.9454    0.0000 O   0  0  0  0  0  0  0  0  0  0  0  0
   -1.2634   -2.5126    0.0000 C   0  0  0  0  0  0  0  0  0  0  0  0
   -0.2445   -1.4118    0.0000 C   0  0  0  0  0  0  0  0  0  0  0  0
    1.2183   -1.7438    0.0000 C   0  0  0  0  0  0  0  0  0  0  0  0
    2.2372   -0.6429    0.0000 C   0  0  0  0  0  0  0  0  0  0  0  0
    3.7000   -0.9749    0.0000 C   0  0  0  0  0  0  0  0  0  0  0  0
    4.7188    0.1260    0.0000 C   0  0  0  0  0  0  0  0  0  0  0  0
    4.2749    1.5588    0.0000 N   0  0  0  0  0  0  0  0  0  0  0  0
    5.2938    2.6596    0.0000 N   0  0  0  0  0  0  0  0  0  0  0  0
    6.7566    2.3277    0.0000 C   0  0  0  0  0  0  0  0  0  0  0  0
    7.7755    3.4285    0.0000 O   0  0  0  0  0  0  0  0  0  0  0  0
    7.2005    0.8949    0.0000 C   0  0  0  0  0  0  0  0  0  0  0  0
    6.1817   -0.2060    0.0000 C   0  0  0  0  0  0  0  0  0  0  0  0
    6.6256   -1.6388    0.0000 N   0  0  0  0  0  0  0  0  0  0  0  0
    8.0884   -1.9708    0.0000 C   0  0  0  0  0  0  0  0  0  0  0  0
    9.1073   -0.8699    0.0000 C   0  0  0  0  0  0  0  0  0  0  0  0
    8.6633    0.5629    0.0000 C   0  0  0  0  0  0  0  0  0  0  0  0
    1.7932    0.7899    0.0000 C   0  0  0  0  0  0  0  0  0  0  0  0
    0.3304    1.1219    0.0000 C   0  0  0  0  0  0  0  0  0  0  0  0
   -0.6885    0.0210    0.0000 C   0  0  0  0  0  0  0  0  0  0  0  0
   -2.1513    0.3530    0.0000 F   0  0  0  0  0  0  0  0  0  0  0  0
   -2.7262   -2.1807    0.0000 N   0  0  0  0  0  0  0  0  0  0  0  0
   -3.6600   -3.3546    0.0000 C   0  0  0  0  0  0  0  0  0  0  0  0
   -5.1600   -3.3565    0.0000 C   0  0  0  0  0  0  0  0  0  0  0  0
   -6.0967   -2.1849    0.0000 C   0  0  0  0  0  0  0  0  0  0  0  0
   -5.7647   -0.7221    0.0000 N   0  0  0  0  0  0  0  0  0  0  0  0
   -6.9387    0.2117    0.0000 C   0  0  0  0  0  0  0  0  0  0  0  0
   -8.3343   -0.3380    0.0000 O   0  0  0  0  0  0  0  0  0  0  0  0
   -6.7169    1.6952    0.0000 C   0  0  0  0  0  0  0  0  0  0  0  0
   -7.7868    2.7466    0.0000 C   0  0  0  0  0  0  0  0  0  0  0  0
   -7.1175    4.0890    0.0000 C   0  0  0  0  0  0  0  0  0  0  0  0
   -5.6340    3.8673    0.0000 C   0  0  0  0  0  0  0  0  0  0  0  0
   -5.3864    2.3879    0.0000 C   0  0  0  0  0  0  0  0  0  0  0  0
   -4.4141   -0.0696    0.0000 C   0  0  0  0  0  0  0  0  0  0  0  0
   -3.0618   -0.7187    0.0000 C   0  0  0  0  0  0  0  0  0  0  0  0
  1  2  2  0
  2  3  1  0
  3  4  2  0
  4  5  1  0
  5  6  1  0
  6  7  1  0
  7  8  2  0
  8  9  1  0
  9 10  1  0
 10 11  2  0
 10 12  1  0
 12 13  2  0
 13 14  1  0
 14 15  1  0
 15 16  1  0
 16 17  1  0
  5 18  2  0
 18 19  1  0
 19 20  2  0
 20 21  1  0
  2 22  1  0
 22 23  1  0
 23 24  1  0
 24 25  1  0
 25 26  1  0
 26 27  1  0
 27 28  2  0
 27 29  1  0
 29 30  1  0
 30 31  1  0
 31 32  1  0
 32 33  1  0
 26 34  1  0
 34 35  1  0
 20  3  1  0
 35 22  1  0
 13  7  1  0
 33 29  1  0
 17 12  1  0
M  END
$$$$

     RDKit          2D

 30 33  0  0  0  0  0  0  0  0999 V2000
   -4.2519   -2.6122    0.0000 C   0  0  0  0  0  0  0  0  0  0  0  0
   -5.5112   -1.7971    0.0000 N   0  0  0  0  0  0  0  0  0  0  0  0
   -6.8467   -2.4801    0.0000 C   0  0  0  0  0  0  0  0  0  0  0  0
   -8.1059   -1.6650    0.0000 C   0  0  0  0  0  0  0  0  0  0  0  0
   -8.0296   -0.1669    0.0000 C   0  0  0  0  0  0  0  0  0  0  0  0
   -6.6941    0.5160    0.0000 N   0  0  0  0  0  0  0  0  0  0  0  0
   -6.6178    2.0141    0.0000 C   0  0  0  0  0  0  0  0  0  0  0  0
   -5.4349   -0.2990    0.0000 C   0  0  0  0  0  0  0  0  0  0  0  0
   -4.0994    0.3839    0.0000 C   0  0  0  0  0  0  0  0  0  0  0  0
   -4.0231    1.8820    0.0000 O   0  0  0  0  0  0  0  0  0  0  0  0
   -2.8402   -0.4311    0.0000 N   0  0  0  0  0  0  0  0  0  0  0  0
   -1.5047    0.2518    0.0000 C   0  0  0  0  0  0  0  0  0  0  0  0
   -0.2455   -0.5632    0.0000 C   0  0  0  0  0  0  0  0  0  0  0  0
    1.0900    0.1197    0.0000 C   0  0  0  0  0  0  0  0  0  0  0  0
    2.3493   -0.6954    0.0000 C   0  0  0  0  0  0  0  0  0  0  0  0
    3.6847   -0.0124    0.0000 C   0  0  0  0  0  0  0  0  0  0  0  0
    3.7610    1.4857    0.0000 N   0  0  0  0  0  0  0  0  0  0  0  0
    5.0965    2.1687    0.0000 N   0  0  0  0  0  0  0  0  0  0  0  0
    6.3557    1.3536    0.0000 C   0  0  0  0  0  0  0  0  0  0  0  0
    7.6912    2.0366    0.0000 O   0  0  0  0  0  0  0  0  0  0  0  0
    6.2795   -0.1445    0.0000 C   0  0  0  0  0  0  0  0  0  0  0  0
    4.9440   -0.8275    0.0000 C   0  0  0  0  0  0  0  0  0  0  0  0
    4.8677   -2.3255    0.0000 N   0  0  0  0  0  0  0  0  0  0  0  0
    6.1269   -3.1406    0.0000 C   0  0  0  0  0  0  0  0  0  0  0  0
    7.4624   -2.4576    0.0000 C   0  0  0  0  0  0  0  0  0  0  0  0
    7.5387   -0.9596    0.0000 C   0  0  0  0  0  0  0  0  0  0  0  0
    1.1663    1.6178    0.0000 C   0  0  0  0  0  0  0  0  0  0  0  0
   -0.0929    2.4329    0.0000 C   0  0  0  0  0  0  0  0  0  0  0  0
   -1.4284    1.7499    0.0000 C   0  0  0  0  0  0  0  0  0  0  0  0
   -2.6876    2.5650    0.0000 F   0  0  0  0  0  0  0  0  0  0  0  0
  1  2  1  0
  2  3  1  0
  3  4  1  0
  4  5  1  0
  5  6  1  0
  6  7  1  0
  6  8  1  0
  8  9  1  0
  9 10  2  0
  9 11  1  0
 11 12  1  0
 12 13  2  0
 13 14  1  0
 14 15  1  0
 15 16  1  0
 16 17  2  0
 17 18  1  0
 18 19  1  0
 19 20  2  0
 19 21  1  0
 21 22  2  0
 22 23  1  0
 23 24  1  0
 24 25  1  0
 25 26  1  0
 14 27  2  0
 27 28  1  0
 28 29  2  0
 29 30  1  0
  8  2  1  0
 29 12  1  0
 22 16  1  0
 26 21  1  0
M  END
$$$$

     RDKit          2D

 31 34  0  0  0  0  0  0  0  0999 V2000
   -8.1615   -3.4363    0.0000 N   0  0  0  0  0  0  0  0  0  0  0  0
   -6.9383   -2.5679    0.0000 C   0  0  0  0  0  0  0  0  0  0  0  0
   -5.5748   -3.1930    0.0000 O   0  0  0  0  0  0  0  0  0  0  0  0
   -7.0788   -1.0745    0.0000 C   0  0  0  0  0  0  0  0  0  0  0  0
   -8.4423   -0.4494    0.0000 C   0  0  0  0  0  0  0  0  0  0  0  0
   -8.5828    1.0440    0.0000 C   0  0  0  0  0  0  0  0  0  0  0  0
   -7.3597    1.9123    0.0000 C   0  0  0  0  0  0  0  0  0  0  0  0
   -5.9961    1.2872    0.0000 C   0  0  0  0  0  0  0  0  0  0  0  0
   -4.6192    1.8823    0.0000 N   0  0  0  0  0  0  0  0  0  0  0  0
   -3.6278    0.7566    0.0000 C   0  0  0  0  0  0  0  0  0  0  0  0
   -2.1344    0.8971    0.0000 C   0  0  0  0  0  0  0  0  0  0  0  0
   -1.2660   -0.3260    0.0000 C   0  0  0  0  0  0  0  0  0  0  0  0
    0.2274   -0.1856    0.0000 C   0  0  0  0  0  0  0  0  0  0  0  0
    0.8525    1.1780    0.0000 N   0  0  0  0  0  0  0  0  0  0  0  0
    2.3459    1.3184    0.0000 C   0  0  0  0  0  0  0  0  0  0  0  0
    2.9709    2.6820    0.0000 O   0  0  0  0  0  0  0  0  0  0  0  0
    3.2142    0.0953    0.0000 N   0  0  0  0  0  0  0  0  0  0  0  0
    4.7076    0.2358    0.0000 C   0  0  0  0  0  0  0  0  0  0  0  0
    5.3327    1.5993    0.0000 N   0  0  0  0  0  0  0  0  0  0  0  0
    5.5759   -0.9873    0.0000 C   0  0  0  0  0  0  0  0  0  0  0  0
    4.9509   -2.3509    0.0000 O   0  0  0  0  0  0  0  0  0  0  0  0
    7.0694   -0.8469    0.0000 N   0  0  0  0  0  0  0  0  0  0  0  0
    7.9377   -2.0700    0.0000 C   0  0  0  0  0  0  0  0  0  0  0  0
    9.4311   -1.9296    0.0000 C   0  0  0  0  0  0  0  0  0  0  0  0
   10.0562   -0.5660    0.0000 C   0  0  0  0  0  0  0  0  0  0  0  0
    9.1878    0.6571    0.0000 C   0  0  0  0  0  0  0  0  0  0  0  0
    7.6944    0.5167    0.0000 S   0  0  0  0  0  0  0  0  0  0  0  0
   -0.0159    2.4011    0.0000 C   0  0  0  0  0  0  0  0  0  0  0  0
   -1.5093    2.2606    0.0000 C   0  0  0  0  0  0  0  0  0  0  0  0
   -4.3920   -0.5341    0.0000 N   0  0  0  0  0  0  0  0  0  0  0  0
   -5.8557   -0.2062    0.0000 C   0  0  0  0  0  0  0  0  0  0  0  0
  1  2  1  0
  2  3  2  0
  2  4  1  0
  4  5  2  0
  5  6  1  0
  6  7  2  0
  7  8  1  0
  8  9  1  0
  9 10  1  0
 10 11  1  0
 11 12  1  0
 12 13  1  0
 13 14  1  0
 14 15  1  0
 15 16  2  0
 15 17  1  0
 17 18  1  0
 18 19  1  0
 18 20  1  0
 20 21  2  0
 20 22  1  0
 22 23  1  0
 23 24  1  0
 24 25  1  0
 25 26  1  0
 26 27  1  0
 14 28  1  0
 28 29  1  0
 10 30  2  0
 30 31  1  0
 31  4  1  0
 31  8  2  0
 29 11  1  0
 27 22  1  0
M  END
$$$$

     RDKit          2D

 24 27  0  0  0  0  0  0  0  0999 V2000
   -1.8750    2.1777    0.0000 O   0  0  0  0  0  0  0  0  0  0  0  0
   -3.3172    1.7652    0.0000 C   0  0  0  0  0  0  0  0  0  0  0  0
   -4.4986    2.6895    0.0000 C   0  0  0  0  0  0  0  0  0  0  0  0
   -5.7427    1.8515    0.0000 C   0  0  0  0  0  0  0  0  0  0  0  0
   -5.3302    0.4093    0.0000 C   0  0  0  0  0  0  0  0  0  0  0  0
   -3.8311    0.3560    0.0000 N   0  0  0  0  0  0  0  0  0  0  0  0
   -2.9932   -0.8881    0.0000 C   0  0  0  0  0  0  0  0  0  0  0  0
   -3.6516   -2.2359    0.0000 C   0  0  0  0  0  0  0  0  0  0  0  0
   -2.8137   -3.4800    0.0000 C   0  0  0  0  0  0  0  0  0  0  0  0
   -1.3173   -3.3764    0.0000 C   0  0  0  0  0  0  0  0  0  0  0  0
   -0.6588   -2.0286    0.0000 C   0  0  0  0  0  0  0  0  0  0  0  0
    0.8376   -1.9250    0.0000 C   0  0  0  0  0  0  0  0  0  0  0  0
    1.4961   -0.5772    0.0000 C   0  0  0  0  0  0  0  0  0  0  0  0
    0.6581    0.6669    0.0000 N   0  0  0  0  0  0  0  0  0  0  0  0
    1.3166    2.0147    0.0000 N   0  0  0  0  0  0  0  0  0  0  0  0
    2.8130    2.1183    0.0000 C   0  0  0  0  0  0  0  0  0  0  0  0
    3.4714    3.4661    0.0000 O   0  0  0  0  0  0  0  0  0  0  0  0
    3.6509    0.8742    0.0000 C   0  0  0  0  0  0  0  0  0  0  0  0
    2.9925   -0.4736    0.0000 C   0  0  0  0  0  0  0  0  0  0  0  0
    3.8304   -1.7177    0.0000 C   0  0  0  0  0  0  0  0  0  0  0  0
    5.3269   -1.6140    0.0000 C   0  0  0  0  0  0  0  0  0  0  0  0
    5.9853   -0.2663    0.0000 C   0  0  0  0  0  0  0  0  0  0  0  0
    5.1473    0.9778    0.0000 C   0  0  0  0  0  0  0  0  0  0  0  0
   -1.4968   -0.7845    0.0000 C   0  0  0  0  0  0  0  0  0  0  0  0
  1  2  2  0
  2  3  1  0
  3  4  1  0
  4  5  1  0
  5  6  1  0
  6  7  1  0
  7  8  2  0
  8  9  1  0
  9 10  2  0
 10 11  1  0
 11 12  1  0
 12 13  1  0
 13 14  2  0
 14 15  1  0
 15 16  1  0
 16 17  2  0
 16 18  1  0
 18 19  2  0
 19 20  1  0
 20 21  1  0
 21 22  1  0
 22 23  1  0
 11 24  2  0
  6  2  1  0
 24  7  1  0
 19 13  1  0
 23 18  1  0
M  END
$$$$

     RDKit          2D

 25 28  0  0  0  0  0  0  0  0999 V2000
   -4.0407    3.1610    0.0000 C   0  0  0  0  0  0  0  0  0  0  0  0
   -3.2879    1.8636    0.0000 N   0  0  0  0  0  0  0  0  0  0  0  0
   -4.0351    0.5630    0.0000 C   0  0  0  0  0  0  0  0  0  0  0  0
   -5.5351    0.5598    0.0000 O   0  0  0  0  0  0  0  0  0  0  0  0
   -3.2824   -0.7345    0.0000 C   0  0  0  0  0  0  0  0  0  0  0  0
   -4.0296   -2.0351    0.0000 C   0  0  0  0  0  0  0  0  0  0  0  0
   -3.2768   -3.3325    0.0000 C   0  0  0  0  0  0  0  0  0  0  0  0
   -1.7768   -3.3293    0.0000 C   0  0  0  0  0  0  0  0  0  0  0  0
   -1.0296   -2.0287    0.0000 C   0  0  0  0  0  0  0  0  0  0  0  0
    0.4704   -2.0255    0.0000 C   0  0  0  0  0  0  0  0  0  0  0  0
    1.2176   -0.7249    0.0000 C   0  0  0  0  0  0  0  0  0  0  0  0
    0.4649    0.5726    0.0000 N   0  0  0  0  0  0  0  0  0  0  0  0
    1.2121    1.8732    0.0000 N   0  0  0  0  0  0  0  0  0  0  0  0
    2.7121    1.8764    0.0000 C   0  0  0  0  0  0  0  0  0  0  0  0
    3.4593    3.1770    0.0000 O   0  0  0  0  0  0  0  0  0  0  0  0
    3.4649    0.5790    0.0000 C   0  0  0  0  0  0  0  0  0  0  0  0
    2.7176   -0.7217    0.0000 C   0  0  0  0  0  0  0  0  0  0  0  0
    3.4704   -2.0191    0.0000 C   0  0  0  0  0  0  0  0  0  0  0  0
    4.9704   -2.0159    0.0000 C   0  0  0  0  0  0  0  0  0  0  0  0
    5.7176   -0.7153    0.0000 C   0  0  0  0  0  0  0  0  0  0  0  0
    4.9648    0.5822    0.0000 C   0  0  0  0  0  0  0  0  0  0  0  0
   -1.7824   -0.7313    0.0000 C   0  0  0  0  0  0  0  0  0  0  0  0
   -1.7879    1.8668    0.0000 C   0  0  0  0  0  0  0  0  0  0  0  0
   -0.4905    2.6196    0.0000 C   0  0  0  0  0  0  0  0  0  0  0  0
   -0.4873    1.1196    0.0000 C   0  0  0  0  0  0  0  0  0  0  0  0
  1  2  1  0
  2  3  1  0
  3  4  2  0
  3  5  1  0
  5  6  2  0
  6  7  1  0
  7  8  2  0
  8  9  1  0
  9 10  1  0
 10 11  1  0
 11 12  2  0
 12 13  1  0
 13 14  1  0
 14 15  2  0
 14 16  1  0
 16 17  2  0
 17 18  1  0
 18 19  1  0
 19 20  1  0
 20 21  1  0
  9 22  2  0
  2 23  1  0
 23 24  1  0
 24 25  1  0
 22  5  1  0
 25 23  1  0
 17 11  1  0
 21 16  1  0
M  END
$$$$

     RDKit          2D

 20 22  0  0  0  0  0  0  0  0999 V2000
    3.8169   -2.9821    0.0000 O   0  0  0  0  0  0  0  0  0  0  0  0
    2.7694   -1.9085    0.0000 C   0  0  0  0  0  0  0  0  0  0  0  0
    1.3159   -2.2788    0.0000 N   0  0  0  0  0  0  0  0  0  0  0  0
    0.2683   -1.2051    0.0000 N   0  0  0  0  0  0  0  0  0  0  0  0
    0.6744    0.2389    0.0000 C   0  0  0  0  0  0  0  0  0  0  0  0
   -0.3731    1.3125    0.0000 C   0  0  0  0  0  0  0  0  0  0  0  0
   -1.8267    0.9422    0.0000 C   0  0  0  0  0  0  0  0  0  0  0  0
   -2.8742    2.0158    0.0000 C   0  0  0  0  0  0  0  0  0  0  0  0
   -4.3277    1.6455    0.0000 C   0  0  0  0  0  0  0  0  0  0  0  0
   -4.7338    0.2015    0.0000 C   0  0  0  0  0  0  0  0  0  0  0  0
   -6.1874   -0.1689    0.0000 Br  0  0  0  0  0  0  0  0  0  0  0  0
   -3.6863   -0.8722    0.0000 C   0  0  0  0  0  0  0  0  0  0  0  0
   -4.0923   -2.3162    0.0000 F   0  0  0  0  0  0  0  0  0  0  0  0
   -2.2327   -0.5018    0.0000 C   0  0  0  0  0  0  0  0  0  0  0  0
    2.1280    0.6092    0.0000 C   0  0  0  0  0  0  0  0  0  0  0  0
    3.1755   -0.4645    0.0000 C   0  0  0  0  0  0  0  0  0  0  0  0
    4.6290   -0.0941    0.0000 C   0  0  0  0  0  0  0  0  0  0  0  0
    5.0351    1.3499    0.0000 C   0  0  0  0  0  0  0  0  0  0  0  0
    3.9876    2.4235    0.0000 C   0  0  0  0  0  0  0  0  0  0  0  0
    2.5340    2.0532    0.0000 N   0  0  0  0  0  0  0  0  0  0  0  0
  1  2  2  0
  2  3  1  0
  3  4  1  0
  4  5  2  0
  5  6  1  0
  6  7  1  0
  7  8  2  0
  8  9  1  0
  9 10  2  0
 10 11  1  0
 10 12  1  0
 12 13  1  0
 12 14  2  0
  5 15  1  0
 15 16  2  0
 16 17  1  0
 17 18  1  0
 18 19  1  0
 19 20  1  0
 16  2  1  0
 14  7  1  0
 20 15  1  0
M  END
$$$$

     RDKit          2D

 22 24  0  0  0  0  0  0  0  0999 V2000
   -5.8015   -1.6096    0.0000 N   0  0  0  0  0  0  0  0  0  0  0  0
   -4.3129   -1.4257    0.0000 C   0  0  0  0  0  0  0  0  0  0  0  0
   -3.4093   -2.6230    0.0000 O   0  0  0  0  0  0  0  0  0  0  0  0
   -3.7277   -0.0445    0.0000 C   0  0  0  0  0  0  0  0  0  0  0  0
   -4.6313    1.1528    0.0000 C   0  0  0  0  0  0  0  0  0  0  0  0
   -4.0462    2.5340    0.0000 C   0  0  0  0  0  0  0  0  0  0  0  0
   -2.5575    2.7178    0.0000 C   0  0  0  0  0  0  0  0  0  0  0  0
   -1.6539    1.5205    0.0000 C   0  0  0  0  0  0  0  0  0  0  0  0
   -0.1596    1.3908    0.0000 N   0  0  0  0  0  0  0  0  0  0  0  0
    0.1789   -0.0705    0.0000 C   0  0  0  0  0  0  0  0  0  0  0  0
    1.5601   -0.6556    0.0000 N   0  0  0  0  0  0  0  0  0  0  0  0
    1.7439   -2.1443    0.0000 C   0  0  0  0  0  0  0  0  0  0  0  0
    3.1251   -2.7294    0.0000 C   0  0  0  0  0  0  0  0  0  0  0  0
    3.3090   -4.2181    0.0000 O   0  0  0  0  0  0  0  0  0  0  0  0
    2.7574    0.2480    0.0000 C   0  0  0  0  0  0  0  0  0  0  0  0
    4.1386   -0.3371    0.0000 C   0  0  0  0  0  0  0  0  0  0  0  0
    5.3359    0.5664    0.0000 C   0  0  0  0  0  0  0  0  0  0  0  0
    5.1520    2.0551    0.0000 C   0  0  0  0  0  0  0  0  0  0  0  0
    3.7708    2.6402    0.0000 C   0  0  0  0  0  0  0  0  0  0  0  0
    2.5735    1.7367    0.0000 C   0  0  0  0  0  0  0  0  0  0  0  0
   -1.1063   -0.8439    0.0000 N   0  0  0  0  0  0  0  0  0  0  0  0
   -2.2391    0.1393    0.0000 C   0  0  0  0  0  0  0  0  0  0  0  0
  1  2  1  0
  2  3  2  0
  2  4  1  0
  4  5  2  0
  5  6  1  0
  6  7  2  0
  7  8  1  0
  8  9  1  0
  9 10  1  0
 10 11  1  0
 11 12  1  0
 12 13  1  0
 13 14  1  0
 11 15  1  0
 15 16  1  0
 16 17  1  0
 17 18  1  0
 18 19  1  0
 19 20  1  0
 10 21  2  0
 21 22  1  0
 22  4  1  0
 22  8  2  0
 20 15  1  0
M  END
$$$$

     RDKit          2D

 25 28  0  0  0  0  0  0  0  0999 V2000
   -6.0166    1.3798    0.0000 C   0  0  0  0  0  0  0  0  0  0  0  0
   -5.7067   -0.0878    0.0000 N   0  0  0  0  0  0  0  0  0  0  0  0
   -6.7119   -1.2012    0.0000 C   0  0  0  0  0  0  0  0  0  0  0  0
   -5.9636   -2.5012    0.0000 C   0  0  0  0  0  0  0  0  0  0  0  0
   -4.4960   -2.1913    0.0000 C   0  0  0  0  0  0  0  0  0  0  0  0
   -4.3372   -0.6997    0.0000 C   0  0  0  0  0  0  0  0  0  0  0  0
   -3.0372    0.0485    0.0000 C   0  0  0  0  0  0  0  0  0  0  0  0
   -1.7391   -0.7032    0.0000 C   0  0  0  0  0  0  0  0  0  0  0  0
   -0.4391    0.0451    0.0000 C   0  0  0  0  0  0  0  0  0  0  0  0
    0.8589   -0.7066    0.0000 C   0  0  0  0  0  0  0  0  0  0  0  0
    2.1590    0.0416    0.0000 C   0  0  0  0  0  0  0  0  0  0  0  0
    2.1610    1.5416    0.0000 N   0  0  0  0  0  0  0  0  0  0  0  0
    3.4610    2.2899    0.0000 N   0  0  0  0  0  0  0  0  0  0  0  0
    4.7590    1.5382    0.0000 C   0  0  0  0  0  0  0  0  0  0  0  0
    6.0591    2.2865    0.0000 O   0  0  0  0  0  0  0  0  0  0  0  0
    4.7570    0.0382    0.0000 C   0  0  0  0  0  0  0  0  0  0  0  0
    3.4570   -0.7101    0.0000 C   0  0  0  0  0  0  0  0  0  0  0  0
    3.4550   -2.2101    0.0000 C   0  0  0  0  0  0  0  0  0  0  0  0
    4.7531   -2.9618    0.0000 C   0  0  0  0  0  0  0  0  0  0  0  0
    6.0531   -2.2135    0.0000 C   0  0  0  0  0  0  0  0  0  0  0  0
    6.0551   -0.7135    0.0000 C   0  0  0  0  0  0  0  0  0  0  0  0
   -0.4371    1.5451    0.0000 C   0  0  0  0  0  0  0  0  0  0  0  0
   -1.7352    2.2968    0.0000 C   0  0  0  0  0  0  0  0  0  0  0  0
   -3.0352    1.5485    0.0000 C   0  0  0  0  0  0  0  0  0  0  0  0
   -4.3332    2.3003    0.0000 F   0  0  0  0  0  0  0  0  0  0  0  0
  1  2  1  0
  2  3  1  0
  3  4  1  0
  4  5  1  0
  5  6  1  0
  6  7  1  0
  7  8  2  0
  8  9  1  0
  9 10  1  0
 10 11  1  0
 11 12  2  0
 12 13  1  0
 13 14  1  0
 14 15  2  0
 14 16  1  0
 16 17  2  0
 17 18  1  0
 18 19  1  0
 19 20  1  0
 20 21  1  0
  9 22  2  0
 22 23  1  0
 23 24  2  0
 24 25  1  0
  6  2  1  0
 24  7  1  0
 17 11  1  0
 21 16  1  0
M  END
$$$$

     RDKit          2D

 33 36  0  0  0  0  0  0  0  0999 V2000
   -6.7379   -5.4529    0.0000 N   0  0  0  0  0  0  0  0  0  0  0  0
   -7.0210   -3.9799    0.0000 C   0  0  0  0  0  0  0  0  0  0  0  0
   -8.4383   -3.4886    0.0000 O   0  0  0  0  0  0  0  0  0  0  0  0
   -5.8869   -2.9982    0.0000 C   0  0  0  0  0  0  0  0  0  0  0  0
   -6.1700   -1.5251    0.0000 C   0  0  0  0  0  0  0  0  0  0  0  0
   -5.0359   -0.5434    0.0000 C   0  0  0  0  0  0  0  0  0  0  0  0
   -5.3191    0.9296    0.0000 N   0  0  0  0  0  0  0  0  0  0  0  0
   -6.5609    1.7710    0.0000 C   0  0  0  0  0  0  0  0  0  0  0  0
   -8.0339    1.4879    0.0000 O   0  0  0  0  0  0  0  0  0  0  0  0
   -5.7195    3.0128    0.0000 C   0  0  0  0  0  0  0  0  0  0  0  0
   -4.4777    2.1715    0.0000 C   0  0  0  0  0  0  0  0  0  0  0  0
   -3.0046    2.4546    0.0000 N   0  0  0  0  0  0  0  0  0  0  0  0
   -2.0229    1.3205    0.0000 C   0  0  0  0  0  0  0  0  0  0  0  0
   -2.5142   -0.0968    0.0000 O   0  0  0  0  0  0  0  0  0  0  0  0
   -0.5499    1.6036    0.0000 C   0  0  0  0  0  0  0  0  0  0  0  0
    0.4318    0.4695    0.0000 C   0  0  0  0  0  0  0  0  0  0  0  0
    1.9049    0.7527    0.0000 C   0  0  0  0  0  0  0  0  0  0  0  0
    2.8866   -0.3814    0.0000 C   0  0  0  0  0  0  0  0  0  0  0  0
    4.3596   -0.0983    0.0000 C   0  0  0  0  0  0  0  0  0  0  0  0
    4.8509    1.3190    0.0000 N   0  0  0  0  0  0  0  0  0  0  0  0
    6.3240    1.6021    0.0000 N   0  0  0  0  0  0  0  0  0  0  0  0
    7.3057    0.4680    0.0000 C   0  0  0  0  0  0  0  0  0  0  0  0
    8.7787    0.7511    0.0000 O   0  0  0  0  0  0  0  0  0  0  0  0
    6.8144   -0.9493    0.0000 C   0  0  0  0  0  0  0  0  0  0  0  0
    5.3414   -1.2324    0.0000 C   0  0  0  0  0  0  0  0  0  0  0  0
    4.8501   -2.6497    0.0000 N   0  0  0  0  0  0  0  0  0  0  0  0
    5.8318   -3.7838    0.0000 C   0  0  0  0  0  0  0  0  0  0  0  0
    7.3048   -3.5006    0.0000 C   0  0  0  0  0  0  0  0  0  0  0  0
    7.7961   -2.0834    0.0000 C   0  0  0  0  0  0  0  0  0  0  0  0
    2.3962    2.1699    0.0000 C   0  0  0  0  0  0  0  0  0  0  0  0
    1.4145    3.3040    0.0000 C   0  0  0  0  0  0  0  0  0  0  0  0
   -0.0586    3.0209    0.0000 C   0  0  0  0  0  0  0  0  0  0  0  0
   -1.0403    4.1550    0.0000 F   0  0  0  0  0  0  0  0  0  0  0  0
  1  2  1  0
  2  3  2  0
  2  4  1  0
  4  5  1  0
  5  6  1  0
  6  7  1  0
  7  8  1  0
  8  9  2  0
  8 10  1  0
 10 11  1  0
 11 12  1  0
 12 13  1  0
 13 14  2  0
 13 15  1  0
 15 16  2  0
 16 17  1  0
 17 18  1  0
 18 19  1  0
 19 20  2  0
 20 21  1  0
 21 22  1  0
 22 23  2  0
 22 24  1  0
 24 25  2  0
 25 26  1  0
 26 27  1  0
 27 28  1  0
 28 29  1  0
 17 30  2  0
 30 31  1  0
 31 32  2  0
 32 33  1  0
 11  7  1  0
 32 15  1  0
 25 19  1  0
 29 24  1  0
M  END
$$$$

     RDKit          2D

 30 33  0  0  0  0  0  0  0  0999 V2000
  -10.4463   -0.9402    0.0000 C   0  0  0  0  0  0  0  0  0  0  0  0
   -9.2263   -1.8128    0.0000 O   0  0  0  0  0  0  0  0  0  0  0  0
   -7.8605   -1.1925    0.0000 C   0  0  0  0  0  0  0  0  0  0  0  0
   -7.7149    0.3004    0.0000 C   0  0  0  0  0  0  0  0  0  0  0  0
   -6.3492    0.9208    0.0000 C   0  0  0  0  0  0  0  0  0  0  0  0
   -5.1291    0.0482    0.0000 C   0  0  0  0  0  0  0  0  0  0  0  0
   -3.7634    0.6685    0.0000 C   0  0  0  0  0  0  0  0  0  0  0  0
   -3.6178    2.1614    0.0000 O   0  0  0  0  0  0  0  0  0  0  0  0
   -2.5433   -0.2040    0.0000 N   0  0  0  0  0  0  0  0  0  0  0  0
   -1.1776    0.4163    0.0000 C   0  0  0  0  0  0  0  0  0  0  0  0
    0.0425   -0.4563    0.0000 C   0  0  0  0  0  0  0  0  0  0  0  0
    1.4082    0.1641    0.0000 C   0  0  0  0  0  0  0  0  0  0  0  0
    2.6283   -0.7085    0.0000 C   0  0  0  0  0  0  0  0  0  0  0  0
    3.9940   -0.0882    0.0000 C   0  0  0  0  0  0  0  0  0  0  0  0
    4.1397    1.4047    0.0000 N   0  0  0  0  0  0  0  0  0  0  0  0
    5.5054    2.0251    0.0000 N   0  0  0  0  0  0  0  0  0  0  0  0
    6.7255    1.1525    0.0000 C   0  0  0  0  0  0  0  0  0  0  0  0
    8.0912    1.7728    0.0000 O   0  0  0  0  0  0  0  0  0  0  0  0
    6.5798   -0.3404    0.0000 C   0  0  0  0  0  0  0  0  0  0  0  0
    5.2141   -0.9608    0.0000 C   0  0  0  0  0  0  0  0  0  0  0  0
    5.0685   -2.4537    0.0000 N   0  0  0  0  0  0  0  0  0  0  0  0
    6.2886   -3.3263    0.0000 C   0  0  0  0  0  0  0  0  0  0  0  0
    7.6543   -2.7059    0.0000 C   0  0  0  0  0  0  0  0  0  0  0  0
    7.7999   -1.2130    0.0000 C   0  0  0  0  0  0  0  0  0  0  0  0
    1.5539    1.6570    0.0000 C   0  0  0  0  0  0  0  0  0  0  0  0
    0.3338    2.5295    0.0000 C   0  0  0  0  0  0  0  0  0  0  0  0
   -1.0320    1.9092    0.0000 C   0  0  0  0  0  0  0  0  0  0  0  0
   -2.2520    2.7818    0.0000 F   0  0  0  0  0  0  0  0  0  0  0  0
   -5.2747   -1.4447    0.0000 C   0  0  0  0  0  0  0  0  0  0  0  0
   -6.6404   -2.0651    0.0000 C   0  0  0  0  0  0  0  0  0  0  0  0
  1  2  1  0
  2  3  1  0
  3  4  2  0
  4  5  1  0
  5  6  2  0
  6  7  1  0
  7  8  2  0
  7  9  1  0
  9 10  1  0
 10 11  2  0
 11 12  1  0
 12 13  1  0
 13 14  1  0
 14 15  2  0
 15 16  1  0
 16 17  1  0
 17 18  2  0
 17 19  1  0
 19 20  2  0
 20 21  1  0
 21 22  1  0
 22 23  1  0
 23 24  1  0
 12 25  2  0
 25 26  1  0
 26 27  2  0
 27 28  1  0
  6 29  1  0
 29 30  2  0
 30  3  1  0
 27 10  1  0
 20 14  1  0
 24 19  1  0
M  END
$$$$

     RDKit          2D

 29 32  0  0  0  0  0  0  0  0999 V2000
   -1.7318   -0.6349    0.0000 C   0  0  0  0  0  0  0  0  0  0  0  0
   -3.1088   -1.2299    0.0000 C   0  0  0  0  0  0  0  0  0  0  0  0
   -3.1701   -2.7286    0.0000 C   0  0  0  0  0  0  0  0  0  0  0  0
   -4.3802   -3.6151    0.0000 N   0  0  0  0  0  0  0  0  0  0  0  0
   -5.8277   -3.2218    0.0000 C   0  0  0  0  0  0  0  0  0  0  0  0
   -6.4227   -1.8448    0.0000 C   0  0  0  0  0  0  0  0  0  0  0  0
   -5.7171   -0.5211    0.0000 C   0  0  0  0  0  0  0  0  0  0  0  0
   -4.2423   -0.2475    0.0000 N   0  0  0  0  0  0  0  0  0  0  0  0
   -3.8490    1.2001    0.0000 C   0  0  0  0  0  0  0  0  0  0  0  0
   -4.9059    2.2644    0.0000 O   0  0  0  0  0  0  0  0  0  0  0  0
   -2.3987    1.5832    0.0000 C   0  0  0  0  0  0  0  0  0  0  0  0
   -1.3418    0.5188    0.0000 C   0  0  0  0  0  0  0  0  0  0  0  0
    0.1085    0.9019    0.0000 C   0  0  0  0  0  0  0  0  0  0  0  0
    1.1654   -0.1625    0.0000 C   0  0  0  0  0  0  0  0  0  0  0  0
    2.6156    0.2207    0.0000 C   0  0  0  0  0  0  0  0  0  0  0  0
    3.0090    1.6682    0.0000 N   0  0  0  0  0  0  0  0  0  0  0  0
    4.4592    2.0513    0.0000 N   0  0  0  0  0  0  0  0  0  0  0  0
    5.5161    0.9869    0.0000 C   0  0  0  0  0  0  0  0  0  0  0  0
    6.9664    1.3701    0.0000 O   0  0  0  0  0  0  0  0  0  0  0  0
    5.1228   -0.4606    0.0000 C   0  0  0  0  0  0  0  0  0  0  0  0
    3.6726   -0.8437    0.0000 C   0  0  0  0  0  0  0  0  0  0  0  0
    3.2792   -2.2912    0.0000 N   0  0  0  0  0  0  0  0  0  0  0  0
    4.3361   -3.3556    0.0000 C   0  0  0  0  0  0  0  0  0  0  0  0
    5.7864   -2.9725    0.0000 C   0  0  0  0  0  0  0  0  0  0  0  0
    6.1797   -1.5250    0.0000 C   0  0  0  0  0  0  0  0  0  0  0  0
    0.5018    2.3494    0.0000 C   0  0  0  0  0  0  0  0  0  0  0  0
   -0.5551    3.4138    0.0000 C   0  0  0  0  0  0  0  0  0  0  0  0
   -2.0054    3.0307    0.0000 C   0  0  0  0  0  0  0  0  0  0  0  0
   -3.0623    4.0951    0.0000 F   0  0  0  0  0  0  0  0  0  0  0  0
  1  2  1  0
  2  3  1  0
  3  4  1  0
  4  5  1  0
  5  6  1  0
  6  7  1  0
  7  8  1  0
  8  9  1  0
  9 10  2  0
  9 11  1  0
 11 12  2  0
 12 13  1  0
 13 14  1  0
 14 15  1  0
 15 16  2  0
 16 17  1  0
 17 18  1  0
 18 19  2  0
 18 20  1  0
 20 21  2  0
 21 22  1  0
 22 23  1  0
 23 24  1  0
 24 25  1  0
 13 26  2  0
 26 27  1  0
 27 28  2  0
 28 29  1  0
  8  2  1  0
 28 11  1  0
 21 15  1  0
 25 20  1  0
M  END
$$$$

     RDKit          2D

 27 30  0  0  0  0  0  0  0  0999 V2000
   -3.4884   -2.7690    0.0000 O   0  0  0  0  0  0  0  0  0  0  0  0
   -3.6120   -1.2741    0.0000 C   0  0  0  0  0  0  0  0  0  0  0  0
   -2.3791   -0.4196    0.0000 C   0  0  0  0  0  0  0  0  0  0  0  0
   -1.0227   -1.0601    0.0000 C   0  0  0  0  0  0  0  0  0  0  0  0
    0.2101   -0.2056    0.0000 C   0  0  0  0  0  0  0  0  0  0  0  0
    1.5665   -0.8460    0.0000 C   0  0  0  0  0  0  0  0  0  0  0  0
    2.7993    0.0084    0.0000 C   0  0  0  0  0  0  0  0  0  0  0  0
    2.6758    1.5033    0.0000 N   0  0  0  0  0  0  0  0  0  0  0  0
    3.9086    2.3578    0.0000 N   0  0  0  0  0  0  0  0  0  0  0  0
    5.2650    1.7174    0.0000 C   0  0  0  0  0  0  0  0  0  0  0  0
    6.4979    2.5718    0.0000 O   0  0  0  0  0  0  0  0  0  0  0  0
    5.3886    0.2225    0.0000 C   0  0  0  0  0  0  0  0  0  0  0  0
    4.1558   -0.6320    0.0000 C   0  0  0  0  0  0  0  0  0  0  0  0
    4.2793   -2.1269    0.0000 C   0  0  0  0  0  0  0  0  0  0  0  0
    5.6357   -2.7673    0.0000 C   0  0  0  0  0  0  0  0  0  0  0  0
    6.8686   -1.9129    0.0000 C   0  0  0  0  0  0  0  0  0  0  0  0
    6.7450   -0.4180    0.0000 C   0  0  0  0  0  0  0  0  0  0  0  0
    0.0865    1.2893    0.0000 C   0  0  0  0  0  0  0  0  0  0  0  0
   -1.2699    1.9297    0.0000 C   0  0  0  0  0  0  0  0  0  0  0  0
   -2.5027    1.0753    0.0000 C   0  0  0  0  0  0  0  0  0  0  0  0
   -3.8591    1.7157    0.0000 F   0  0  0  0  0  0  0  0  0  0  0  0
   -4.9684   -0.6337    0.0000 N   0  0  0  0  0  0  0  0  0  0  0  0
   -5.0920    0.8612    0.0000 C   0  0  0  0  0  0  0  0  0  0  0  0
   -6.4484    1.5017    0.0000 C   0  0  0  0  0  0  0  0  0  0  0  0
   -7.6812    0.6472    0.0000 C   0  0  0  0  0  0  0  0  0  0  0  0
   -7.5576   -0.8477    0.0000 C   0  0  0  0  0  0  0  0  0  0  0  0
   -6.2012   -1.4882    0.0000 C   0  0  0  0  0  0  0  0  0  0  0  0
  1  2  2  0
  2  3  1  0
  3  4  2  0
  4  5  1  0
  5  6  1  0
  6  7  1  0
  7  8  2  0
  8  9  1  0
  9 10  1  0
 10 11  2  0
 10 12  1  0
 12 13  2  0
 13 14  1  0
 14 15  1  0
 15 16  1  0
 16 17  1  0
  5 18  2  0
 18 19  1  0
 19 20  2  0
 20 21  1  0
  2 22  1  0
 22 23  1  0
 23 24  1  0
 24 25  1  0
 25 26  1  0
 26 27  1  0
 20  3  1  0
 27 22  1  0
 13  7  1  0
 17 12  1  0
M  END
$$$$

     RDKit          2D

 33 36  0  0  0  0  0  0  0  0999 V2000
   -9.9164   -0.8958    0.0000 C   0  0  0  0  0  0  0  0  0  0  0  0
   -9.0103    0.2995    0.0000 C   0  0  0  0  0  0  0  0  0  0  0  0
   -7.5220    0.1124    0.0000 N   0  0  0  0  0  0  0  0  0  0  0  0
   -6.6158    1.3078    0.0000 C   0  0  0  0  0  0  0  0  0  0  0  0
   -7.1979    2.6902    0.0000 C   0  0  0  0  0  0  0  0  0  0  0  0
   -5.1275    1.1207    0.0000 C   0  0  0  0  0  0  0  0  0  0  0  0
   -4.2214    2.3160    0.0000 C   0  0  0  0  0  0  0  0  0  0  0  0
   -2.7331    2.1289    0.0000 C   0  0  0  0  0  0  0  0  0  0  0  0
   -2.1510    0.7465    0.0000 C   0  0  0  0  0  0  0  0  0  0  0  0
   -3.0571   -0.4489    0.0000 C   0  0  0  0  0  0  0  0  0  0  0  0
   -2.4750   -1.8313    0.0000 C   0  0  0  0  0  0  0  0  0  0  0  0
   -0.9867   -2.0184    0.0000 C   0  0  0  0  0  0  0  0  0  0  0  0
   -0.0806   -0.8230    0.0000 O   0  0  0  0  0  0  0  0  0  0  0  0
   -0.4046   -3.4008    0.0000 N   0  0  0  0  0  0  0  0  0  0  0  0
    1.0837   -3.5879    0.0000 C   0  0  0  0  0  0  0  0  0  0  0  0
    1.6658   -4.9704    0.0000 C   0  0  0  0  0  0  0  0  0  0  0  0
    3.1541   -5.1575    0.0000 C   0  0  0  0  0  0  0  0  0  0  0  0
    4.0602   -3.9621    0.0000 C   0  0  0  0  0  0  0  0  0  0  0  0
    3.4781   -2.5797    0.0000 C   0  0  0  0  0  0  0  0  0  0  0  0
    4.3843   -1.3843    0.0000 C   0  0  0  0  0  0  0  0  0  0  0  0
    3.8022   -0.0019    0.0000 C   0  0  0  0  0  0  0  0  0  0  0  0
    2.3139    0.1852    0.0000 N   0  0  0  0  0  0  0  0  0  0  0  0
    1.7318    1.5677    0.0000 N   0  0  0  0  0  0  0  0  0  0  0  0
    2.6380    2.7630    0.0000 C   0  0  0  0  0  0  0  0  0  0  0  0
    2.0558    4.1454    0.0000 O   0  0  0  0  0  0  0  0  0  0  0  0
    4.1262    2.5759    0.0000 C   0  0  0  0  0  0  0  0  0  0  0  0
    4.7084    1.1935    0.0000 C   0  0  0  0  0  0  0  0  0  0  0  0
    6.1966    1.0064    0.0000 C   0  0  0  0  0  0  0  0  0  0  0  0
    7.1028    2.2017    0.0000 C   0  0  0  0  0  0  0  0  0  0  0  0
    6.5207    3.5842    0.0000 C   0  0  0  0  0  0  0  0  0  0  0  0
    5.0324    3.7713    0.0000 C   0  0  0  0  0  0  0  0  0  0  0  0
    1.9898   -2.3926    0.0000 C   0  0  0  0  0  0  0  0  0  0  0  0
   -4.5454   -0.2618    0.0000 C   0  0  0  0  0  0  0  0  0  0  0  0
  1  2  1  0
  2  3  1  0
  3  4  1  0
  4  5  1  0
  4  6  1  0
  6  7  2  0
  7  8  1  0
  8  9  2  0
  9 10  1  0
 10 11  1  0
 11 12  1  0
 12 13  2  0
 12 14  1  0
 14 15  1  0
 15 16  2  0
 16 17  1  0
 17 18  2  0
 18 19  1  0
 19 20  1  0
 20 21  1  0
 21 22  2  0
 22 23  1  0
 23 24  1  0
 24 25  2  0
 24 26  1  0
 26 27  2  0
 27 28  1  0
 28 29  1  0
 29 30  1  0
 30 31  1  0
 19 32  2  0
 10 33  2  0
 33  6  1  0
 32 15  1  0
 27 21  1  0
 31 26  1  0
M  END
$$$$

     RDKit          2D

 33 36  0  0  0  0  0  0  0  0999 V2000
   -0.1252   -4.7230    0.0000 O   0  0  0  0  0  0  0  0  0  0  0  0
    0.6342   -3.4294    0.0000 C   0  0  0  0  0  0  0  0  0  0  0  0
   -0.1063   -2.1250    0.0000 N   0  0  0  0  0  0  0  0  0  0  0  0
   -1.6063   -2.1141    0.0000 C   0  0  0  0  0  0  0  0  0  0  0  0
   -2.3469   -0.8096    0.0000 C   0  0  0  0  0  0  0  0  0  0  0  0
   -3.8468   -0.7987    0.0000 N   0  0  0  0  0  0  0  0  0  0  0  0
   -4.5874    0.5057    0.0000 C   0  0  0  0  0  0  0  0  0  0  0  0
   -6.0873    0.5166    0.0000 C   0  0  0  0  0  0  0  0  0  0  0  0
   -6.8279    1.8211    0.0000 C   0  0  0  0  0  0  0  0  0  0  0  0
   -8.3278    1.8320    0.0000 C   0  0  0  0  0  0  0  0  0  0  0  0
   -9.0684    3.1364    0.0000 F   0  0  0  0  0  0  0  0  0  0  0  0
   -9.0872    0.5384    0.0000 C   0  0  0  0  0  0  0  0  0  0  0  0
  -10.5872    0.5493    0.0000 F   0  0  0  0  0  0  0  0  0  0  0  0
   -8.3467   -0.7661    0.0000 C   0  0  0  0  0  0  0  0  0  0  0  0
   -6.8467   -0.7770    0.0000 N   0  0  0  0  0  0  0  0  0  0  0  0
    2.1342   -3.4403    0.0000 C   0  0  0  0  0  0  0  0  0  0  0  0
    2.8747   -4.7448    0.0000 C   0  0  0  0  0  0  0  0  0  0  0  0
    4.3747   -4.7557    0.0000 C   0  0  0  0  0  0  0  0  0  0  0  0
    5.1341   -3.4621    0.0000 C   0  0  0  0  0  0  0  0  0  0  0  0
    4.3935   -2.1577    0.0000 C   0  0  0  0  0  0  0  0  0  0  0  0
    5.1530   -0.8641    0.0000 C   0  0  0  0  0  0  0  0  0  0  0  0
    4.4124    0.4403    0.0000 C   0  0  0  0  0  0  0  0  0  0  0  0
    2.9124    0.4512    0.0000 N   0  0  0  0  0  0  0  0  0  0  0  0
    2.1719    1.7557    0.0000 N   0  0  0  0  0  0  0  0  0  0  0  0
    2.9313    3.0492    0.0000 C   0  0  0  0  0  0  0  0  0  0  0  0
    2.1908    4.3537    0.0000 O   0  0  0  0  0  0  0  0  0  0  0  0
    4.4313    3.0383    0.0000 C   0  0  0  0  0  0  0  0  0  0  0  0
    5.1718    1.7339    0.0000 C   0  0  0  0  0  0  0  0  0  0  0  0
    6.6718    1.7230    0.0000 C   0  0  0  0  0  0  0  0  0  0  0  0
    7.4312    3.0166    0.0000 C   0  0  0  0  0  0  0  0  0  0  0  0
    6.6907    4.3210    0.0000 C   0  0  0  0  0  0  0  0  0  0  0  0
    5.1907    4.3319    0.0000 C   0  0  0  0  0  0  0  0  0  0  0  0
    2.8936   -2.1468    0.0000 C   0  0  0  0  0  0  0  0  0  0  0  0
  1  2  2  0
  2  3  1  0
  3  4  1  0
  4  5  1  0
  5  6  1  0
  6  7  1  0
  7  8  1  0
  8  9  2  0
  9 10  1  0
 10 11  1  0
 10 12  2  0
 12 13  1  0
 12 14  1  0
 14 15  2  0
  2 16  1  0
 16 17  2  0
 17 18  1  0
 18 19  2  0
 19 20  1  0
 20 21  1  0
 21 22  1  0
 22 23  2  0
 23 24  1  0
 24 25  1  0
 25 26  2  0
 25 27  1  0
 27 28  2  0
 28 29  1  0
 29 30  1  0
 30 31  1  0
 31 32  1  0
 20 33  2  0
 15  8  1  0
 33 16  1  0
 28 22  1  0
 32 27  1  0
M  END
$$$$

     RDKit          2D

 33 36  0  0  0  0  0  0  0  0999 V2000
   -7.4194    3.9234    0.0000 C   0  0  0  0  0  0  0  0  0  0  0  0
   -7.9230    2.5105    0.0000 O   0  0  0  0  0  0  0  0  0  0  0  0
   -6.9512    1.3679    0.0000 C   0  0  0  0  0  0  0  0  0  0  0  0
   -5.4757    1.6382    0.0000 C   0  0  0  0  0  0  0  0  0  0  0  0
   -4.5039    0.4955    0.0000 C   0  0  0  0  0  0  0  0  0  0  0  0
   -5.0076   -0.9174    0.0000 C   0  0  0  0  0  0  0  0  0  0  0  0
   -4.0358   -2.0600    0.0000 C   0  0  0  0  0  0  0  0  0  0  0  0
   -2.5603   -1.7897    0.0000 C   0  0  0  0  0  0  0  0  0  0  0  0
   -1.5885   -2.9323    0.0000 C   0  0  0  0  0  0  0  0  0  0  0  0
   -0.1131   -2.6620    0.0000 N   0  0  0  0  0  0  0  0  0  0  0  0
    0.8588   -3.8046    0.0000 C   0  0  0  0  0  0  0  0  0  0  0  0
    0.3551   -5.2176    0.0000 O   0  0  0  0  0  0  0  0  0  0  0  0
    2.3342   -3.5343    0.0000 C   0  0  0  0  0  0  0  0  0  0  0  0
    3.3060   -4.6770    0.0000 C   0  0  0  0  0  0  0  0  0  0  0  0
    4.7815   -4.4067    0.0000 C   0  0  0  0  0  0  0  0  0  0  0  0
    5.2851   -2.9937    0.0000 C   0  0  0  0  0  0  0  0  0  0  0  0
    4.3133   -1.8511    0.0000 C   0  0  0  0  0  0  0  0  0  0  0  0
    4.8169   -0.4382    0.0000 C   0  0  0  0  0  0  0  0  0  0  0  0
    3.8451    0.7044    0.0000 C   0  0  0  0  0  0  0  0  0  0  0  0
    2.3697    0.4341    0.0000 N   0  0  0  0  0  0  0  0  0  0  0  0
    1.3978    1.5767    0.0000 N   0  0  0  0  0  0  0  0  0  0  0  0
    1.9015    2.9897    0.0000 C   0  0  0  0  0  0  0  0  0  0  0  0
    0.9297    4.1323    0.0000 O   0  0  0  0  0  0  0  0  0  0  0  0
    3.3769    3.2600    0.0000 C   0  0  0  0  0  0  0  0  0  0  0  0
    4.3487    2.1173    0.0000 C   0  0  0  0  0  0  0  0  0  0  0  0
    5.8242    2.3876    0.0000 C   0  0  0  0  0  0  0  0  0  0  0  0
    6.3278    3.8006    0.0000 C   0  0  0  0  0  0  0  0  0  0  0  0
    5.3560    4.9432    0.0000 C   0  0  0  0  0  0  0  0  0  0  0  0
    3.8806    4.6729    0.0000 C   0  0  0  0  0  0  0  0  0  0  0  0
    2.8378   -2.1214    0.0000 C   0  0  0  0  0  0  0  0  0  0  0  0
   -6.4830   -1.1877    0.0000 C   0  0  0  0  0  0  0  0  0  0  0  0
   -7.4548   -0.0451    0.0000 C   0  0  0  0  0  0  0  0  0  0  0  0
   -8.9303   -0.3154    0.0000 C   0  0  0  0  0  0  0  0  0  0  0  0
  1  2  1  0
  2  3  1  0
  3  4  2  0
  4  5  1  0
  5  6  2  0
  6  7  1  0
  7  8  1  0
  8  9  1  0
  9 10  1  0
 10 11  1  0
 11 12  2  0
 11 13  1  0
 13 14  2  0
 14 15  1  0
 15 16  2  0
 16 17  1  0
 17 18  1  0
 18 19  1  0
 19 20  2  0
 20 21  1  0
 21 22  1  0
 22 23  2  0
 22 24  1  0
 24 25  2  0
 25 26  1  0
 26 27  1  0
 27 28  1  0
 28 29  1  0
 17 30  2  0
  6 31  1  0
 31 32  2  0
 32 33  1  0
 32  3  1  0
 30 13  1  0
 25 19  1  0
 29 24  1  0
M  END
$$$$

     RDKit          2D

 24 26  0  0  0  0  0  0  0  0999 V2000
   -8.2713    0.4376    0.0000 C   0  0  0  0  0  0  0  0  0  0  0  0
   -6.9985   -0.3562    0.0000 C   0  0  0  0  0  0  0  0  0  0  0  0
   -7.0494   -1.8553    0.0000 C   0  0  0  0  0  0  0  0  0  0  0  0
   -5.6747    0.3493    0.0000 N   0  0  0  0  0  0  0  0  0  0  0  0
   -4.4019   -0.4444    0.0000 C   0  0  0  0  0  0  0  0  0  0  0  0
   -4.4529   -1.9436    0.0000 O   0  0  0  0  0  0  0  0  0  0  0  0
   -3.0781    0.2610    0.0000 C   0  0  0  0  0  0  0  0  0  0  0  0
   -3.0272    1.7601    0.0000 C   0  0  0  0  0  0  0  0  0  0  0  0
   -1.7034    2.4656    0.0000 C   0  0  0  0  0  0  0  0  0  0  0  0
   -0.4306    1.6718    0.0000 C   0  0  0  0  0  0  0  0  0  0  0  0
   -0.4815    0.1727    0.0000 C   0  0  0  0  0  0  0  0  0  0  0  0
    0.7913   -0.6210    0.0000 C   0  0  0  0  0  0  0  0  0  0  0  0
    2.1150    0.0844    0.0000 C   0  0  0  0  0  0  0  0  0  0  0  0
    2.1660    1.5836    0.0000 N   0  0  0  0  0  0  0  0  0  0  0  0
    3.4898    2.2890    0.0000 N   0  0  0  0  0  0  0  0  0  0  0  0
    4.7626    1.4953    0.0000 C   0  0  0  0  0  0  0  0  0  0  0  0
    6.0863    2.2007    0.0000 O   0  0  0  0  0  0  0  0  0  0  0  0
    4.7116   -0.0038    0.0000 C   0  0  0  0  0  0  0  0  0  0  0  0
    3.3878   -0.7093    0.0000 C   0  0  0  0  0  0  0  0  0  0  0  0
    3.3369   -2.2084    0.0000 C   0  0  0  0  0  0  0  0  0  0  0  0
    4.6097   -3.0021    0.0000 C   0  0  0  0  0  0  0  0  0  0  0  0
    5.9334   -2.2967    0.0000 C   0  0  0  0  0  0  0  0  0  0  0  0
    5.9844   -0.7976    0.0000 C   0  0  0  0  0  0  0  0  0  0  0  0
   -1.8053   -0.5327    0.0000 C   0  0  0  0  0  0  0  0  0  0  0  0
  1  2  1  0
  2  3  1  0
  2  4  1  0
  4  5  1  0
  5  6  2  0
  5  7  1  0
  7  8  2  0
  8  9  1  0
  9 10  2  0
 10 11  1  0
 11 12  1  0
 12 13  1  0
 13 14  2  0
 14 15  1  0
 15 16  1  0
 16 17  2  0
 16 18  1  0
 18 19  2  0
 19 20  1  0
 20 21  1  0
 21 22  1  0
 22 23  1  0
 11 24  2  0
 24  7  1  0
 19 13  1  0
 23 18  1  0
M  END
$$$$

     RDKit          2D

 32 36  0  0  0  0  0  0  0  0999 V2000
   -2.4039    2.0219    0.0000 C   0  0  0  0  0  0  0  0  0  0  0  0
   -2.1749    0.5395    0.0000 N   0  0  0  0  0  0  0  0  0  0  0  0
   -3.3442   -0.4001    0.0000 C   0  0  0  0  0  0  0  0  0  0  0  0
   -3.5067   -1.8912    0.0000 C   0  0  0  0  0  0  0  0  0  0  0  0
   -2.5672   -3.0605    0.0000 C   0  0  0  0  0  0  0  0  0  0  0  0
   -1.0848   -2.8315    0.0000 C   0  0  0  0  0  0  0  0  0  0  0  0
   -0.5419   -1.4332    0.0000 O   0  0  0  0  0  0  0  0  0  0  0  0
   -0.1452   -4.0009    0.0000 N   0  0  0  0  0  0  0  0  0  0  0  0
    1.3372   -3.7718    0.0000 C   0  0  0  0  0  0  0  0  0  0  0  0
    2.2767   -4.9412    0.0000 C   0  0  0  0  0  0  0  0  0  0  0  0
    3.7591   -4.7122    0.0000 C   0  0  0  0  0  0  0  0  0  0  0  0
    4.3020   -3.3138    0.0000 C   0  0  0  0  0  0  0  0  0  0  0  0
    3.3625   -2.1445    0.0000 C   0  0  0  0  0  0  0  0  0  0  0  0
    3.9054   -0.7462    0.0000 C   0  0  0  0  0  0  0  0  0  0  0  0
    2.9658    0.4231    0.0000 C   0  0  0  0  0  0  0  0  0  0  0  0
    1.4834    0.1941    0.0000 N   0  0  0  0  0  0  0  0  0  0  0  0
    0.5439    1.3634    0.0000 N   0  0  0  0  0  0  0  0  0  0  0  0
    1.0868    2.7617    0.0000 C   0  0  0  0  0  0  0  0  0  0  0  0
    0.1472    3.9310    0.0000 O   0  0  0  0  0  0  0  0  0  0  0  0
    2.5692    2.9907    0.0000 C   0  0  0  0  0  0  0  0  0  0  0  0
    3.5087    1.8214    0.0000 C   0  0  0  0  0  0  0  0  0  0  0  0
    4.9911    2.0504    0.0000 C   0  0  0  0  0  0  0  0  0  0  0  0
    5.5340    3.4487    0.0000 C   0  0  0  0  0  0  0  0  0  0  0  0
    4.5945    4.6180    0.0000 C   0  0  0  0  0  0  0  0  0  0  0  0
    3.1121    4.3890    0.0000 C   0  0  0  0  0  0  0  0  0  0  0  0
    1.8801   -2.3735    0.0000 C   0  0  0  0  0  0  0  0  0  0  0  0
   -4.9979   -1.7288    0.0000 C   0  0  0  0  0  0  0  0  0  0  0  0
   -4.8354   -0.2376    0.0000 C   0  0  0  0  0  0  0  0  0  0  0  0
   -5.7750    0.9317    0.0000 N   0  0  0  0  0  0  0  0  0  0  0  0
   -5.6125    2.4229    0.0000 C   0  0  0  0  0  0  0  0  0  0  0  0
   -7.1037    2.5854    0.0000 C   0  0  0  0  0  0  0  0  0  0  0  0
   -7.2661    1.0942    0.0000 C   0  0  0  0  0  0  0  0  0  0  0  0
  1  2  1  0
  2  3  1  0
  3  4  2  0
  4  5  1  0
  5  6  1  0
  6  7  2  0
  6  8  1  0
  8  9  1  0
  9 10  2  0
 10 11  1  0
 11 12  2  0
 12 13  1  0
 13 14  1  0
 14 15  1  0
 15 16  2  0
 16 17  1  0
 17 18  1  0
 18 19  2  0
 18 20  1  0
 20 21  2  0
 21 22  1  0
 22 23  1  0
 23 24  1  0
 24 25  1  0
 13 26  2  0
  4 27  1  0
 27 28  2  0
 28 29  1  0
 29 30  1  0
 30 31  1  0
 31 32  1  0
 28  3  1  0
 32 29  1  0
 26  9  1  0
 21 15  1  0
 25 20  1  0
M  END
$$$$

     RDKit          2D

 27 30  0  0  0  0  0  0  0  0999 V2000
   -6.8056    1.7955    0.0000 C   0  0  0  0  0  0  0  0  0  0  0  0
   -5.6763    0.8083    0.0000 O   0  0  0  0  0  0  0  0  0  0  0  0
   -4.2566    1.2927    0.0000 C   0  0  0  0  0  0  0  0  0  0  0  0
   -3.9663    2.7644    0.0000 C   0  0  0  0  0  0  0  0  0  0  0  0
   -2.5467    3.2488    0.0000 C   0  0  0  0  0  0  0  0  0  0  0  0
   -1.4174    2.2615    0.0000 C   0  0  0  0  0  0  0  0  0  0  0  0
   -1.7077    0.7899    0.0000 C   0  0  0  0  0  0  0  0  0  0  0  0
   -3.1273    0.3055    0.0000 C   0  0  0  0  0  0  0  0  0  0  0  0
   -3.4176   -1.1662    0.0000 N   0  0  0  0  0  0  0  0  0  0  0  0
   -2.2883   -2.1534    0.0000 C   0  0  0  0  0  0  0  0  0  0  0  0
   -2.5786   -3.6250    0.0000 C   0  0  0  0  0  0  0  0  0  0  0  0
   -1.4493   -4.6123    0.0000 C   0  0  0  0  0  0  0  0  0  0  0  0
   -0.0297   -4.1279    0.0000 N   0  0  0  0  0  0  0  0  0  0  0  0
    0.2606   -2.6562    0.0000 C   0  0  0  0  0  0  0  0  0  0  0  0
    1.6803   -2.1718    0.0000 C   0  0  0  0  0  0  0  0  0  0  0  0
    1.9706   -0.7002    0.0000 C   0  0  0  0  0  0  0  0  0  0  0  0
    0.8413    0.2871    0.0000 N   0  0  0  0  0  0  0  0  0  0  0  0
    1.1316    1.7587    0.0000 N   0  0  0  0  0  0  0  0  0  0  0  0
    2.5512    2.2431    0.0000 C   0  0  0  0  0  0  0  0  0  0  0  0
    2.8415    3.7147    0.0000 O   0  0  0  0  0  0  0  0  0  0  0  0
    3.6805    1.2559    0.0000 C   0  0  0  0  0  0  0  0  0  0  0  0
    3.3902   -0.2158    0.0000 C   0  0  0  0  0  0  0  0  0  0  0  0
    4.5195   -1.2030    0.0000 C   0  0  0  0  0  0  0  0  0  0  0  0
    5.9392   -0.7186    0.0000 C   0  0  0  0  0  0  0  0  0  0  0  0
    6.2295    0.7530    0.0000 C   0  0  0  0  0  0  0  0  0  0  0  0
    5.1002    1.7403    0.0000 C   0  0  0  0  0  0  0  0  0  0  0  0
   -0.8687   -1.6690    0.0000 C   0  0  0  0  0  0  0  0  0  0  0  0
  1  2  1  0
  2  3  1  0
  3  4  2  0
  4  5  1  0
  5  6  2  0
  6  7  1  0
  7  8  2  0
  8  9  1  0
  9 10  1  0
 10 11  2  0
 11 12  1  0
 12 13  2  0
 13 14  1  0
 14 15  1  0
 15 16  1  0
 16 17  2  0
 17 18  1  0
 18 19  1  0
 19 20  2  0
 19 21  1  0
 21 22  2  0
 22 23  1  0
 23 24  1  0
 24 25  1  0
 25 26  1  0
 14 27  2  0
  8  3  1  0
 27 10  1  0
 22 16  1  0
 26 21  1  0
M  END
$$$$

     RDKit          2D

 19 21  0  0  0  0  0  0  0  0999 V2000
    3.5375   -2.7947    0.0000 O   0  0  0  0  0  0  0  0  0  0  0  0
    2.4191   -1.7952    0.0000 C   0  0  0  0  0  0  0  0  0  0  0  0
    0.9942   -2.2640    0.0000 N   0  0  0  0  0  0  0  0  0  0  0  0
   -0.1242   -1.2645    0.0000 N   0  0  0  0  0  0  0  0  0  0  0  0
    0.1822    0.2039    0.0000 C   0  0  0  0  0  0  0  0  0  0  0  0
   -0.9362    1.2035    0.0000 C   0  0  0  0  0  0  0  0  0  0  0  0
   -2.3610    0.7347    0.0000 C   0  0  0  0  0  0  0  0  0  0  0  0
   -3.4795    1.7342    0.0000 C   0  0  0  0  0  0  0  0  0  0  0  0
   -4.9043    1.2654    0.0000 C   0  0  0  0  0  0  0  0  0  0  0  0
   -5.2108   -0.2030    0.0000 C   0  0  0  0  0  0  0  0  0  0  0  0
   -4.0923   -1.2025    0.0000 C   0  0  0  0  0  0  0  0  0  0  0  0
   -2.6675   -0.7337    0.0000 C   0  0  0  0  0  0  0  0  0  0  0  0
   -1.5490   -1.7333    0.0000 Cl  0  0  0  0  0  0  0  0  0  0  0  0
    1.6071    0.6727    0.0000 C   0  0  0  0  0  0  0  0  0  0  0  0
    2.7255   -0.3268    0.0000 C   0  0  0  0  0  0  0  0  0  0  0  0
    4.1504    0.1420    0.0000 C   0  0  0  0  0  0  0  0  0  0  0  0
    4.4568    1.6104    0.0000 C   0  0  0  0  0  0  0  0  0  0  0  0
    3.3384    2.6099    0.0000 C   0  0  0  0  0  0  0  0  0  0  0  0
    1.9135    2.1411    0.0000 C   0  0  0  0  0  0  0  0  0  0  0  0
  1  2  2  0
  2  3  1  0
  3  4  1  0
  4  5  2  0
  5  6  1  0
  6  7  1  0
  7  8  2  0
  8  9  1  0
  9 10  2  0
 10 11  1  0
 11 12  2  0
 12 13  1  0
  5 14  1  0
 14 15  2  0
 15 16  1  0
 16 17  1  0
 17 18  1  0
 18 19  1  0
 15  2  1  0
 12  7  1  0
 19 14  1  0
M  END
$$$$

     RDKit          2D

 25 28  0  0  0  0  0  0  0  0999 V2000
    3.8523   -3.5041    0.0000 O   0  0  0  0  0  0  0  0  0  0  0  0
    3.1793   -2.1636    0.0000 C   0  0  0  0  0  0  0  0  0  0  0  0
    1.6818   -2.0761    0.0000 N   0  0  0  0  0  0  0  0  0  0  0  0
    1.0088   -0.7356    0.0000 N   0  0  0  0  0  0  0  0  0  0  0  0
    1.8333    0.5175    0.0000 C   0  0  0  0  0  0  0  0  0  0  0  0
    1.1603    1.8581    0.0000 C   0  0  0  0  0  0  0  0  0  0  0  0
   -0.3371    1.9455    0.0000 C   0  0  0  0  0  0  0  0  0  0  0  0
   -1.0101    3.2861    0.0000 C   0  0  0  0  0  0  0  0  0  0  0  0
   -2.5076    3.3735    0.0000 C   0  0  0  0  0  0  0  0  0  0  0  0
   -3.3320    2.1204    0.0000 C   0  0  0  0  0  0  0  0  0  0  0  0
   -4.8295    2.2079    0.0000 F   0  0  0  0  0  0  0  0  0  0  0  0
   -2.6591    0.7799    0.0000 C   0  0  0  0  0  0  0  0  0  0  0  0
   -3.4835   -0.4732    0.0000 C   0  0  0  0  0  0  0  0  0  0  0  0
   -4.9810   -0.3858    0.0000 C   0  0  0  0  0  0  0  0  0  0  0  0
   -5.8054   -1.6389    0.0000 C   0  0  0  0  0  0  0  0  0  0  0  0
   -5.1324   -2.9794    0.0000 C   0  0  0  0  0  0  0  0  0  0  0  0
   -3.6350   -3.0669    0.0000 C   0  0  0  0  0  0  0  0  0  0  0  0
   -2.8105   -1.8138    0.0000 C   0  0  0  0  0  0  0  0  0  0  0  0
   -1.1616    0.6924    0.0000 C   0  0  0  0  0  0  0  0  0  0  0  0
    3.3307    0.4301    0.0000 C   0  0  0  0  0  0  0  0  0  0  0  0
    4.0037   -0.9105    0.0000 C   0  0  0  0  0  0  0  0  0  0  0  0
    5.5012   -0.9979    0.0000 C   0  0  0  0  0  0  0  0  0  0  0  0
    6.3256    0.2552    0.0000 C   0  0  0  0  0  0  0  0  0  0  0  0
    5.6526    1.5957    0.0000 C   0  0  0  0  0  0  0  0  0  0  0  0
    4.1552    1.6832    0.0000 N   0  0  0  0  0  0  0  0  0  0  0  0
  1  2  2  0
  2  3  1  0
  3  4  1  0
  4  5  2  0
  5  6  1  0
  6  7  1  0
  7  8  2  0
  8  9  1  0
  9 10  2  0
 10 11  1  0
 10 12  1  0
 12 13  1  0
 13 14  2  0
 14 15  1  0
 15 16  2  0
 16 17  1  0
 17 18  2  0
 12 19  2  0
  5 20  1  0
 20 21  2  0
 21 22  1  0
 22 23  1  0
 23 24  1  0
 24 25  1  0
 21  2  1  0
 19  7  1  0
 25 20  1  0
 18 13  1  0
M  END
$$$$

     RDKit          2D

 30 33  0  0  0  0  0  0  0  0999 V2000
   -1.4925    4.8007    0.0000 C   0  0  0  0  0  0  0  0  0  0  0  0
   -2.8748    4.2181    0.0000 O   0  0  0  0  0  0  0  0  0  0  0  0
   -3.0614    2.7298    0.0000 C   0  0  0  0  0  0  0  0  0  0  0  0
   -1.8658    1.8240    0.0000 O   0  0  0  0  0  0  0  0  0  0  0  0
   -4.4437    2.1472    0.0000 N   0  0  0  0  0  0  0  0  0  0  0  0
   -5.6393    3.0530    0.0000 C   0  0  0  0  0  0  0  0  0  0  0  0
   -4.6303    0.6589    0.0000 N   0  0  0  0  0  0  0  0  0  0  0  0
   -5.9441   -0.0650    0.0000 C   0  0  0  0  0  0  0  0  0  0  0  0
   -5.6617   -1.5381    0.0000 C   0  0  0  0  0  0  0  0  0  0  0  0
   -4.1733   -1.7248    0.0000 C   0  0  0  0  0  0  0  0  0  0  0  0
   -3.4495   -3.0386    0.0000 N   0  0  0  0  0  0  0  0  0  0  0  0
   -1.9498   -3.0686    0.0000 C   0  0  0  0  0  0  0  0  0  0  0  0
   -1.2259   -4.3824    0.0000 C   0  0  0  0  0  0  0  0  0  0  0  0
    0.2738   -4.4124    0.0000 C   0  0  0  0  0  0  0  0  0  0  0  0
    1.0496   -3.1287    0.0000 C   0  0  0  0  0  0  0  0  0  0  0  0
    0.3258   -1.8149    0.0000 C   0  0  0  0  0  0  0  0  0  0  0  0
    1.1016   -0.5311    0.0000 C   0  0  0  0  0  0  0  0  0  0  0  0
    2.6013   -0.5612    0.0000 C   0  0  0  0  0  0  0  0  0  0  0  0
    3.3252   -1.8749    0.0000 N   0  0  0  0  0  0  0  0  0  0  0  0
    4.8249   -1.9050    0.0000 N   0  0  0  0  0  0  0  0  0  0  0  0
    5.6007   -0.6212    0.0000 C   0  0  0  0  0  0  0  0  0  0  0  0
    7.1004   -0.6513    0.0000 O   0  0  0  0  0  0  0  0  0  0  0  0
    4.8769    0.6926    0.0000 C   0  0  0  0  0  0  0  0  0  0  0  0
    3.3772    0.7226    0.0000 C   0  0  0  0  0  0  0  0  0  0  0  0
    2.6534    2.0364    0.0000 C   0  0  0  0  0  0  0  0  0  0  0  0
    3.4292    3.3202    0.0000 C   0  0  0  0  0  0  0  0  0  0  0  0
    4.9289    3.2901    0.0000 C   0  0  0  0  0  0  0  0  0  0  0  0
    5.6528    1.9763    0.0000 C   0  0  0  0  0  0  0  0  0  0  0  0
   -1.1739   -1.7848    0.0000 C   0  0  0  0  0  0  0  0  0  0  0  0
   -3.5359   -0.3669    0.0000 C   0  0  0  0  0  0  0  0  0  0  0  0
  1  2  1  0
  2  3  1  0
  3  4  2  0
  3  5  1  0
  5  6  1  0
  5  7  1  0
  7  8  1  0
  8  9  2  0
  9 10  1  0
 10 11  1  0
 11 12  1  0
 12 13  2  0
 13 14  1  0
 14 15  2  0
 15 16  1  0
 16 17  1  0
 17 18  1  0
 18 19  2  0
 19 20  1  0
 20 21  1  0
 21 22  2  0
 21 23  1  0
 23 24  2  0
 24 25  1  0
 25 26  1  0
 26 27  1  0
 27 28  1  0
 16 29  2  0
 10 30  2  0
 30  7  1  0
 29 12  1  0
 24 18  1  0
 28 23  1  0
M  END
$$$$

     RDKit          2D

 29 32  0  0  0  0  0  0  0  0999 V2000
   -1.5186   -0.1264    0.0000 O   0  0  0  0  0  0  0  0  0  0  0  0
   -2.7212   -1.0230    0.0000 C   0  0  0  0  0  0  0  0  0  0  0  0
   -4.0989   -0.4297    0.0000 N   0  0  0  0  0  0  0  0  0  0  0  0
   -4.2741    1.0600    0.0000 C   0  0  0  0  0  0  0  0  0  0  0  0
   -3.0715    1.9565    0.0000 C   0  0  0  0  0  0  0  0  0  0  0  0
   -3.2466    3.4463    0.0000 C   0  0  0  0  0  0  0  0  0  0  0  0
   -4.6243    4.0395    0.0000 C   0  0  0  0  0  0  0  0  0  0  0  0
   -5.8269    3.1430    0.0000 C   0  0  0  0  0  0  0  0  0  0  0  0
   -5.6518    1.6532    0.0000 C   0  0  0  0  0  0  0  0  0  0  0  0
   -2.5461   -2.5127    0.0000 C   0  0  0  0  0  0  0  0  0  0  0  0
   -3.7487   -3.4092    0.0000 O   0  0  0  0  0  0  0  0  0  0  0  0
   -1.1684   -3.1059    0.0000 C   0  0  0  0  0  0  0  0  0  0  0  0
   -0.9933   -4.5957    0.0000 C   0  0  0  0  0  0  0  0  0  0  0  0
    0.3844   -5.1889    0.0000 C   0  0  0  0  0  0  0  0  0  0  0  0
    1.5870   -4.2924    0.0000 C   0  0  0  0  0  0  0  0  0  0  0  0
    1.4119   -2.8026    0.0000 C   0  0  0  0  0  0  0  0  0  0  0  0
    2.6145   -1.9061    0.0000 C   0  0  0  0  0  0  0  0  0  0  0  0
    2.4394   -0.4163    0.0000 C   0  0  0  0  0  0  0  0  0  0  0  0
    1.0617    0.1769    0.0000 N   0  0  0  0  0  0  0  0  0  0  0  0
    0.8866    1.6666    0.0000 N   0  0  0  0  0  0  0  0  0  0  0  0
    2.0892    2.5631    0.0000 C   0  0  0  0  0  0  0  0  0  0  0  0
    1.9140    4.0529    0.0000 O   0  0  0  0  0  0  0  0  0  0  0  0
    3.4669    1.9699    0.0000 C   0  0  0  0  0  0  0  0  0  0  0  0
    3.6420    0.4802    0.0000 C   0  0  0  0  0  0  0  0  0  0  0  0
    5.0197   -0.1130    0.0000 C   0  0  0  0  0  0  0  0  0  0  0  0
    6.2223    0.7835    0.0000 C   0  0  0  0  0  0  0  0  0  0  0  0
    6.0472    2.2732    0.0000 C   0  0  0  0  0  0  0  0  0  0  0  0
    4.6695    2.8665    0.0000 C   0  0  0  0  0  0  0  0  0  0  0  0
    0.0342   -2.2094    0.0000 C   0  0  0  0  0  0  0  0  0  0  0  0
  1  2  2  0
  2  3  1  0
  3  4  1  0
  4  5  2  0
  5  6  1  0
  6  7  2  0
  7  8  1  0
  8  9  2  0
  2 10  1  0
 10 11  2  0
 10 12  1  0
 12 13  2  0
 13 14  1  0
 14 15  2  0
 15 16  1  0
 16 17  1  0
 17 18  1  0
 18 19  2  0
 19 20  1  0
 20 21  1  0
 21 22  2  0
 21 23  1  0
 23 24  2  0
 24 25  1  0
 25 26  1  0
 26 27  1  0
 27 28  1  0
 16 29  2  0
  9  4  1  0
 29 12  1  0
 24 18  1  0
 28 23  1  0
M  END
$$$$

     RDKit          2D

 23 26  0  0  0  0  0  0  0  0999 V2000
   -6.1328   -2.5832    0.0000 N   0  0  0  0  0  0  0  0  0  0  0  0
   -4.7538   -1.9928    0.0000 C   0  0  0  0  0  0  0  0  0  0  0  0
   -3.5531   -2.8918    0.0000 O   0  0  0  0  0  0  0  0  0  0  0  0
   -4.5756   -0.5034    0.0000 C   0  0  0  0  0  0  0  0  0  0  0  0
   -5.7764    0.3956    0.0000 C   0  0  0  0  0  0  0  0  0  0  0  0
   -5.5982    1.8850    0.0000 C   0  0  0  0  0  0  0  0  0  0  0  0
   -4.2192    2.4753    0.0000 C   0  0  0  0  0  0  0  0  0  0  0  0
   -3.0185    1.5763    0.0000 C   0  0  0  0  0  0  0  0  0  0  0  0
   -1.5469    1.8671    0.0000 N   0  0  0  0  0  0  0  0  0  0  0  0
   -0.8157    0.5574    0.0000 C   0  0  0  0  0  0  0  0  0  0  0  0
    0.6737    0.3792    0.0000 C   0  0  0  0  0  0  0  0  0  0  0  0
    1.2641   -0.9998    0.0000 C   0  0  0  0  0  0  0  0  0  0  0  0
    2.7534   -1.1780    0.0000 C   0  0  0  0  0  0  0  0  0  0  0  0
    3.6524    0.0228    0.0000 C   0  0  0  0  0  0  0  0  0  0  0  0
    5.1418   -0.1554    0.0000 C   0  0  0  0  0  0  0  0  0  0  0  0
    6.1614    0.9447    0.0000 N   0  0  0  0  0  0  0  0  0  0  0  0
    7.5228    0.3150    0.0000 C   0  0  0  0  0  0  0  0  0  0  0  0
    7.3446   -1.1744    0.0000 N   0  0  0  0  0  0  0  0  0  0  0  0
    5.8731   -1.4651    0.0000 O   0  0  0  0  0  0  0  0  0  0  0  0
    3.0621    1.4017    0.0000 C   0  0  0  0  0  0  0  0  0  0  0  0
    1.5727    1.5799    0.0000 C   0  0  0  0  0  0  0  0  0  0  0  0
   -1.8353   -0.5428    0.0000 N   0  0  0  0  0  0  0  0  0  0  0  0
   -3.1967    0.0869    0.0000 C   0  0  0  0  0  0  0  0  0  0  0  0
  1  2  1  0
  2  3  2  0
  2  4  1  0
  4  5  2  0
  5  6  1  0
  6  7  2  0
  7  8  1  0
  8  9  1  0
  9 10  1  0
 10 11  1  0
 11 12  2  0
 12 13  1  0
 13 14  2  0
 14 15  1  0
 15 16  2  0
 16 17  1  0
 17 18  2  0
 18 19  1  0
 14 20  1  0
 20 21  2  0
 10 22  2  0
 22 23  1  0
 23  4  1  0
 23  8  2  0
 21 11  1  0
 19 15  1  0
M  END
$$$$

     RDKit          2D

 29 32  0  0  0  0  0  0  0  0999 V2000
   -1.0236    0.7484    0.0000 O   0  0  0  0  0  0  0  0  0  0  0  0
   -2.4163    0.1912    0.0000 C   0  0  0  0  0  0  0  0  0  0  0  0
   -2.6301   -1.2935    0.0000 N   0  0  0  0  0  0  0  0  0  0  0  0
   -1.4512   -2.2210    0.0000 C   0  0  0  0  0  0  0  0  0  0  0  0
   -1.6650   -3.7057    0.0000 C   0  0  0  0  0  0  0  0  0  0  0  0
   -0.4861   -4.6332    0.0000 C   0  0  0  0  0  0  0  0  0  0  0  0
    0.9065   -4.0760    0.0000 C   0  0  0  0  0  0  0  0  0  0  0  0
    1.1203   -2.5913    0.0000 C   0  0  0  0  0  0  0  0  0  0  0  0
    2.5130   -2.0341    0.0000 C   0  0  0  0  0  0  0  0  0  0  0  0
    2.7268   -0.5494    0.0000 C   0  0  0  0  0  0  0  0  0  0  0  0
    1.5479    0.3781    0.0000 N   0  0  0  0  0  0  0  0  0  0  0  0
    1.7617    1.8628    0.0000 N   0  0  0  0  0  0  0  0  0  0  0  0
    3.1544    2.4200    0.0000 C   0  0  0  0  0  0  0  0  0  0  0  0
    3.3682    3.9046    0.0000 O   0  0  0  0  0  0  0  0  0  0  0  0
    4.3332    1.4925    0.0000 C   0  0  0  0  0  0  0  0  0  0  0  0
    4.1195    0.0078    0.0000 C   0  0  0  0  0  0  0  0  0  0  0  0
    5.2983   -0.9197    0.0000 C   0  0  0  0  0  0  0  0  0  0  0  0
    6.6910   -0.3625    0.0000 C   0  0  0  0  0  0  0  0  0  0  0  0
    6.9048    1.1222    0.0000 C   0  0  0  0  0  0  0  0  0  0  0  0
    5.7259    2.0497    0.0000 C   0  0  0  0  0  0  0  0  0  0  0  0
   -0.0586   -1.6638    0.0000 C   0  0  0  0  0  0  0  0  0  0  0  0
   -3.5952    1.1187    0.0000 C   0  0  0  0  0  0  0  0  0  0  0  0
   -3.3814    2.6033    0.0000 C   0  0  0  0  0  0  0  0  0  0  0  0
   -4.5603    3.5308    0.0000 C   0  0  0  0  0  0  0  0  0  0  0  0
   -5.9530    2.9736    0.0000 C   0  0  0  0  0  0  0  0  0  0  0  0
   -6.1668    1.4889    0.0000 C   0  0  0  0  0  0  0  0  0  0  0  0
   -4.9879    0.5615    0.0000 C   0  0  0  0  0  0  0  0  0  0  0  0
   -5.2017   -0.9232    0.0000 C   0  0  0  0  0  0  0  0  0  0  0  0
   -6.5943   -1.4804    0.0000 O   0  0  0  0  0  0  0  0  0  0  0  0
  1  2  2  0
  2  3  1  0
  3  4  1  0
  4  5  2  0
  5  6  1  0
  6  7  2  0
  7  8  1  0
  8  9  1  0
  9 10  1  0
 10 11  2  0
 11 12  1  0
 12 13  1  0
 13 14  2  0
 13 15  1  0
 15 16  2  0
 16 17  1  0
 17 18  1  0
 18 19  1  0
 19 20  1  0
  8 21  2  0
  2 22  1  0
 22 23  2  0
 23 24  1  0
 24 25  2  0
 25 26  1  0
 26 27  2  0
 27 28  1  0
 28 29  1  0
 21  4  1  0
 27 22  1  0
 16 10  1  0
 20 15  1  0
M  END
$$$$

     RDKit          2D

 31 34  0  0  0  0  0  0  0  0999 V2000
    0.4187    6.2740    0.0000 C   0  0  0  0  0  0  0  0  0  0  0  0
   -0.6813    5.2541    0.0000 C   0  0  0  0  0  0  0  0  0  0  0  0
   -0.3481    3.7916    0.0000 O   0  0  0  0  0  0  0  0  0  0  0  0
   -1.4481    2.7718    0.0000 C   0  0  0  0  0  0  0  0  0  0  0  0
   -1.1149    1.3092    0.0000 C   0  0  0  0  0  0  0  0  0  0  0  0
   -2.2149    0.2894    0.0000 C   0  0  0  0  0  0  0  0  0  0  0  0
   -3.6480    0.7321    0.0000 C   0  0  0  0  0  0  0  0  0  0  0  0
   -4.7480   -0.2877    0.0000 C   0  0  0  0  0  0  0  0  0  0  0  0
   -6.1812    0.1550    0.0000 C   0  0  0  0  0  0  0  0  0  0  0  0
   -4.4148   -1.7502    0.0000 C   0  0  0  0  0  0  0  0  0  0  0  0
   -5.5148   -2.7701    0.0000 O   0  0  0  0  0  0  0  0  0  0  0  0
   -2.9816   -2.1929    0.0000 C   0  0  0  0  0  0  0  0  0  0  0  0
   -2.6484   -3.6555    0.0000 C   0  0  0  0  0  0  0  0  0  0  0  0
   -1.2152   -4.0981    0.0000 C   0  0  0  0  0  0  0  0  0  0  0  0
   -0.1152   -3.0783    0.0000 C   0  0  0  0  0  0  0  0  0  0  0  0
   -0.4485   -1.6158    0.0000 C   0  0  0  0  0  0  0  0  0  0  0  0
    0.6515   -0.5960    0.0000 C   0  0  0  0  0  0  0  0  0  0  0  0
    2.0847   -1.0387    0.0000 C   0  0  0  0  0  0  0  0  0  0  0  0
    2.4179   -2.5012    0.0000 N   0  0  0  0  0  0  0  0  0  0  0  0
    3.8511   -2.9439    0.0000 N   0  0  0  0  0  0  0  0  0  0  0  0
    4.9511   -1.9240    0.0000 C   0  0  0  0  0  0  0  0  0  0  0  0
    6.3843   -2.3667    0.0000 O   0  0  0  0  0  0  0  0  0  0  0  0
    4.6179   -0.4615    0.0000 C   0  0  0  0  0  0  0  0  0  0  0  0
    3.1847   -0.0188    0.0000 C   0  0  0  0  0  0  0  0  0  0  0  0
    2.8515    1.4437    0.0000 C   0  0  0  0  0  0  0  0  0  0  0  0
    3.9514    2.4635    0.0000 C   0  0  0  0  0  0  0  0  0  0  0  0
    5.3846    2.0208    0.0000 C   0  0  0  0  0  0  0  0  0  0  0  0
    5.7178    0.5583    0.0000 C   0  0  0  0  0  0  0  0  0  0  0  0
   -1.8816   -1.1731    0.0000 C   0  0  0  0  0  0  0  0  0  0  0  0
   -3.9812    2.1946    0.0000 N   0  0  0  0  0  0  0  0  0  0  0  0
   -2.8813    3.2145    0.0000 C   0  0  0  0  0  0  0  0  0  0  0  0
  1  2  1  0
  2  3  1  0
  3  4  1  0
  4  5  2  0
  5  6  1  0
  6  7  2  0
  7  8  1  0
  8  9  1  0
  8 10  1  0
 10 11  2  0
 10 12  1  0
 12 13  2  0
 13 14  1  0
 14 15  2  0
 15 16  1  0
 16 17  1  0
 17 18  1  0
 18 19  2  0
 19 20  1  0
 20 21  1  0
 21 22  2  0
 21 23  1  0
 23 24  2  0
 24 25  1  0
 25 26  1  0
 26 27  1  0
 27 28  1  0
 16 29  2  0
  7 30  1  0
 30 31  2  0
 31  4  1  0
 29 12  1  0
 24 18  1  0
 28 23  1  0
M  END
$$$$
